
---------- Begin Simulation Statistics ----------
final_tick                               5975444417500                       # Number of ticks from beginning of simulation (restored from checkpoints and never reset)
host_inst_rate                                 504212                       # Simulator instruction rate (inst/s)
host_mem_usage                               20319272                       # Number of bytes of host memory used
host_op_rate                                   539504                       # Simulator op (including micro ops) rate (op/s)
host_seconds                                  3966.59                       # Real time elapsed on the host
host_tick_rate                              155701799                       # Simulator tick rate (ticks/s)
sim_freq                                 1000000000000                       # Frequency of simulated ticks
sim_insts                                  2000000021                       # Number of instructions simulated
sim_ops                                    2139987011                       # Number of ops (including micro ops) simulated
sim_seconds                                  0.617605                       # Number of seconds simulated
sim_ticks                                617604508000                       # Number of ticks simulated
system.cpu.committedInsts                          20                       # Number of instructions committed
system.cpu.committedOps                            20                       # Number of ops (including micro ops) committed
system.cpu.dcache.MSHRs.leapFrogMisses          21325                       # number of false blocks from MSHR
system.cpu.icache.MSHRs.leapFrogMisses              0                       # number of false blocks from MSHR
system.cpu.idle_fraction                            0                       # Percentage of idle cycles
system.cpu.not_idle_fraction                        1                       # Percentage of non-idle cycles
system.cpu.numCycles                               20                       # number of cpu cycles simulated
system.cpu.numWorkItemsCompleted                    0                       # number of work items this cpu completed
system.cpu.numWorkItemsStarted                      0                       # number of work items this cpu started
system.cpu.num_busy_cycles                         20                       # Number of busy cycles
system.cpu.num_cc_register_reads                    6                       # number of times the CC registers were read
system.cpu.num_cc_register_writes                   9                       # number of times the CC registers were written
system.cpu.num_conditional_control_insts            0                       # number of instructions that are conditional controls
system.cpu.num_fp_alu_accesses                      0                       # Number of float alu accesses
system.cpu.num_fp_insts                             0                       # number of float instructions
system.cpu.num_fp_register_reads                    0                       # number of times the floating registers were read
system.cpu.num_fp_register_writes                   0                       # number of times the floating registers were written
system.cpu.num_func_calls                           0                       # number of times a function call or return occured
system.cpu.num_idle_cycles                          0                       # Number of idle cycles
system.cpu.num_int_alu_accesses                    20                       # Number of integer alu accesses
system.cpu.num_int_insts                           20                       # number of integer instructions
system.cpu.num_int_register_reads                  30                       # number of times the integer registers were read
system.cpu.num_int_register_writes                 20                       # number of times the integer registers were written
system.cpu.num_load_insts                          11                       # Number of load instructions
system.cpu.num_mem_refs                            11                       # number of memory refs
system.cpu.num_store_insts                          0                       # Number of store instructions
system.cpu.num_vec_alu_accesses                     0                       # Number of vector alu accesses
system.cpu.num_vec_insts                            0                       # number of vector instructions
system.cpu.num_vec_register_reads                   0                       # number of times the vector registers were read
system.cpu.num_vec_register_writes                  0                       # number of times the vector registers were written
system.cpu.op_class::No_OpClass                     0      0.00%      0.00% # Class of executed instruction
system.cpu.op_class::IntAlu                         9     45.00%     45.00% # Class of executed instruction
system.cpu.op_class::IntMult                        0      0.00%     45.00% # Class of executed instruction
system.cpu.op_class::IntDiv                         0      0.00%     45.00% # Class of executed instruction
system.cpu.op_class::FloatAdd                       0      0.00%     45.00% # Class of executed instruction
system.cpu.op_class::FloatCmp                       0      0.00%     45.00% # Class of executed instruction
system.cpu.op_class::FloatCvt                       0      0.00%     45.00% # Class of executed instruction
system.cpu.op_class::FloatMult                      0      0.00%     45.00% # Class of executed instruction
system.cpu.op_class::FloatMultAcc                   0      0.00%     45.00% # Class of executed instruction
system.cpu.op_class::FloatDiv                       0      0.00%     45.00% # Class of executed instruction
system.cpu.op_class::FloatMisc                      0      0.00%     45.00% # Class of executed instruction
system.cpu.op_class::FloatSqrt                      0      0.00%     45.00% # Class of executed instruction
system.cpu.op_class::SimdAdd                        0      0.00%     45.00% # Class of executed instruction
system.cpu.op_class::SimdAddAcc                     0      0.00%     45.00% # Class of executed instruction
system.cpu.op_class::SimdAlu                        0      0.00%     45.00% # Class of executed instruction
system.cpu.op_class::SimdCmp                        0      0.00%     45.00% # Class of executed instruction
system.cpu.op_class::SimdCvt                        0      0.00%     45.00% # Class of executed instruction
system.cpu.op_class::SimdMisc                       0      0.00%     45.00% # Class of executed instruction
system.cpu.op_class::SimdMult                       0      0.00%     45.00% # Class of executed instruction
system.cpu.op_class::SimdMultAcc                    0      0.00%     45.00% # Class of executed instruction
system.cpu.op_class::SimdShift                      0      0.00%     45.00% # Class of executed instruction
system.cpu.op_class::SimdShiftAcc                   0      0.00%     45.00% # Class of executed instruction
system.cpu.op_class::SimdDiv                        0      0.00%     45.00% # Class of executed instruction
system.cpu.op_class::SimdSqrt                       0      0.00%     45.00% # Class of executed instruction
system.cpu.op_class::SimdFloatAdd                   0      0.00%     45.00% # Class of executed instruction
system.cpu.op_class::SimdFloatAlu                   0      0.00%     45.00% # Class of executed instruction
system.cpu.op_class::SimdFloatCmp                   0      0.00%     45.00% # Class of executed instruction
system.cpu.op_class::SimdFloatCvt                   0      0.00%     45.00% # Class of executed instruction
system.cpu.op_class::SimdFloatDiv                   0      0.00%     45.00% # Class of executed instruction
system.cpu.op_class::SimdFloatMisc                  0      0.00%     45.00% # Class of executed instruction
system.cpu.op_class::SimdFloatMult                  0      0.00%     45.00% # Class of executed instruction
system.cpu.op_class::SimdFloatMultAcc               0      0.00%     45.00% # Class of executed instruction
system.cpu.op_class::SimdFloatSqrt                  0      0.00%     45.00% # Class of executed instruction
system.cpu.op_class::SimdReduceAdd                  0      0.00%     45.00% # Class of executed instruction
system.cpu.op_class::SimdReduceAlu                  0      0.00%     45.00% # Class of executed instruction
system.cpu.op_class::SimdReduceCmp                  0      0.00%     45.00% # Class of executed instruction
system.cpu.op_class::SimdFloatReduceAdd             0      0.00%     45.00% # Class of executed instruction
system.cpu.op_class::SimdFloatReduceCmp             0      0.00%     45.00% # Class of executed instruction
system.cpu.op_class::SimdAes                        0      0.00%     45.00% # Class of executed instruction
system.cpu.op_class::SimdAesMix                     0      0.00%     45.00% # Class of executed instruction
system.cpu.op_class::SimdSha1Hash                   0      0.00%     45.00% # Class of executed instruction
system.cpu.op_class::SimdSha1Hash2                  0      0.00%     45.00% # Class of executed instruction
system.cpu.op_class::SimdSha256Hash                 0      0.00%     45.00% # Class of executed instruction
system.cpu.op_class::SimdSha256Hash2                0      0.00%     45.00% # Class of executed instruction
system.cpu.op_class::SimdShaSigma2                  0      0.00%     45.00% # Class of executed instruction
system.cpu.op_class::SimdShaSigma3                  0      0.00%     45.00% # Class of executed instruction
system.cpu.op_class::SimdPredAlu                    0      0.00%     45.00% # Class of executed instruction
system.cpu.op_class::MemRead                       11     55.00%    100.00% # Class of executed instruction
system.cpu.op_class::MemWrite                       0      0.00%    100.00% # Class of executed instruction
system.cpu.op_class::FloatMemRead                   0      0.00%    100.00% # Class of executed instruction
system.cpu.op_class::FloatMemWrite                  0      0.00%    100.00% # Class of executed instruction
system.cpu.op_class::IprAccess                      0      0.00%    100.00% # Class of executed instruction
system.cpu.op_class::InstPrefetch                   0      0.00%    100.00% # Class of executed instruction
system.cpu.op_class::total                         20                       # Class of executed instruction
system.cpu.workload.numSyscalls                     4                       # Number of system calls
system.l2.MSHRs.leapFrogMisses                      0                       # number of false blocks from MSHR
system.membus.snoop_filter.hit_multi_requests            0                       # Number of requests hitting in the snoop filter with multiple (>1) holders of the requested data.
system.membus.snoop_filter.hit_multi_snoops            0                       # Number of snoops hitting in the snoop filter with multiple (>1) holders of the requested data.
system.membus.snoop_filter.hit_single_requests        43219                       # Number of requests hitting in the snoop filter with a single holder of the requested data.
system.membus.snoop_filter.hit_single_snoops            0                       # Number of snoops hitting in the snoop filter with a single holder of the requested data.
system.membus.snoop_filter.tot_requests        112868                       # Total number of requests made to the snoop filter.
system.membus.snoop_filter.tot_snoops               0                       # Total number of snoops made to the snoop filter.
system.switch_cpus.cc_regfile_reads         716514633                       # number of cc regfile reads
system.switch_cpus.cc_regfile_writes        729677312                       # number of cc regfile writes
system.switch_cpus.committedInsts          2000000001                       # Number of Instructions Simulated
system.switch_cpus.committedOps            2139986991                       # Number of Ops (including micro ops) Simulated
system.switch_cpus.cpi                       0.617605                       # CPI: Cycles Per Instruction
system.switch_cpus.cpi_total                 0.617605                       # CPI: Total CPI of All Threads
system.switch_cpus.idleCycles                  793648                       # Total number of cycles that the CPU has spent unscheduled due to idling
system.switch_cpus.iew.branchMispredicts     31916311                       # Number of branch mispredicts detected at execute
system.switch_cpus.iew.exec_branches        376812698                       # Number of branches executed
system.switch_cpus.iew.exec_nop               3069106                       # number of nop insts executed
system.switch_cpus.iew.exec_rate             2.143393                       # Inst execution rate
system.switch_cpus.iew.exec_refs            810453229                       # number of memory reference insts executed
system.switch_cpus.iew.exec_stores          193618278                       # Number of stores executed
system.switch_cpus.iew.exec_swp                     0                       # number of swp insts executed
system.switch_cpus.iew.iewBlockCycles       120881105                       # Number of cycles IEW is blocking
system.switch_cpus.iew.iewDispLoadInsts     665612496                       # Number of dispatched load instructions
system.switch_cpus.iew.iewDispNonSpecInsts         6152                       # Number of dispatched non-speculative instructions
system.switch_cpus.iew.iewDispSquashedInsts      5662382                       # Number of squashed instructions skipped by dispatch
system.switch_cpus.iew.iewDispStoreInsts    215732277                       # Number of dispatched store instructions
system.switch_cpus.iew.iewDispatchedInsts   2923847505                       # Number of instructions dispatched to IQ
system.switch_cpus.iew.iewExecLoadInsts     616834951                       # Number of load instructions executed
system.switch_cpus.iew.iewExecSquashedInsts     53459501                       # Number of squashed instructions skipped in execute
system.switch_cpus.iew.iewExecutedInsts    2647539976                       # Number of executed instructions
system.switch_cpus.iew.iewIQFullEvents        3730318                       # Number of times the IQ has become full, causing a stall
system.switch_cpus.iew.iewIdleCycles                0                       # Number of cycles IEW is idle
system.switch_cpus.iew.iewLSQFullEvents       4026057                       # Number of times the LSQ has become full, causing a stall
system.switch_cpus.iew.iewSquashCycles       28202102                       # Number of cycles IEW is squashing
system.switch_cpus.iew.iewUnblockCycles       9785086                       # Number of cycles IEW is unblocking
system.switch_cpus.iew.memOrderViolationEvents       112683                       # Number of memory order violations
system.switch_cpus.iew.predictedNotTakenIncorrect     17396765                       # Number of branches that were predicted not taken incorrectly
system.switch_cpus.iew.predictedTakenIncorrect     14519546                       # Number of branches that were predicted taken incorrectly
system.switch_cpus.iew.wb_consumers        2529032407                       # num instructions consuming a value
system.switch_cpus.iew.wb_count            2587499877                       # cumulative count of insts written-back
system.switch_cpus.iew.wb_fanout             0.646934                       # average fanout of values written-back
system.switch_cpus.iew.wb_producers        1636116193                       # num instructions producing a value
system.switch_cpus.iew.wb_rate               2.094786                       # insts written-back per cycle
system.switch_cpus.iew.wb_sent             2602442126                       # cumulative count of insts sent to commit
system.switch_cpus.int_regfile_reads       3208537799                       # number of integer regfile reads
system.switch_cpus.int_regfile_writes      2068631704                       # number of integer regfile writes
system.switch_cpus.ipc                       1.619159                       # IPC: Instructions Per Cycle
system.switch_cpus.ipc_total                 1.619159                       # IPC: Total IPC of All Threads
system.switch_cpus.iq.FU_type_0::No_OpClass         6292      0.00%      0.00% # Type of FU issued
system.switch_cpus.iq.FU_type_0::IntAlu    1777670681     65.82%     65.82% # Type of FU issued
system.switch_cpus.iq.FU_type_0::IntMult     33733148      1.25%     67.06% # Type of FU issued
system.switch_cpus.iq.FU_type_0::IntDiv       9615476      0.36%     67.42% # Type of FU issued
system.switch_cpus.iq.FU_type_0::FloatAdd       732020      0.03%     67.45% # Type of FU issued
system.switch_cpus.iq.FU_type_0::FloatCmp       726554      0.03%     67.47% # Type of FU issued
system.switch_cpus.iq.FU_type_0::FloatCvt       793019      0.03%     67.50% # Type of FU issued
system.switch_cpus.iq.FU_type_0::FloatMult            0      0.00%     67.50% # Type of FU issued
system.switch_cpus.iq.FU_type_0::FloatMultAcc            0      0.00%     67.50% # Type of FU issued
system.switch_cpus.iq.FU_type_0::FloatDiv         8569      0.00%     67.50% # Type of FU issued
system.switch_cpus.iq.FU_type_0::FloatMisc      4525645      0.17%     67.67% # Type of FU issued
system.switch_cpus.iq.FU_type_0::FloatSqrt            0      0.00%     67.67% # Type of FU issued
system.switch_cpus.iq.FU_type_0::SimdAdd       732449      0.03%     67.70% # Type of FU issued
system.switch_cpus.iq.FU_type_0::SimdAddAcc            0      0.00%     67.70% # Type of FU issued
system.switch_cpus.iq.FU_type_0::SimdAlu     16892288      0.63%     68.32% # Type of FU issued
system.switch_cpus.iq.FU_type_0::SimdCmp       363575      0.01%     68.34% # Type of FU issued
system.switch_cpus.iq.FU_type_0::SimdCvt       706940      0.03%     68.36% # Type of FU issued
system.switch_cpus.iq.FU_type_0::SimdMisc      6451284      0.24%     68.60% # Type of FU issued
system.switch_cpus.iq.FU_type_0::SimdMult            0      0.00%     68.60% # Type of FU issued
system.switch_cpus.iq.FU_type_0::SimdMultAcc            0      0.00%     68.60% # Type of FU issued
system.switch_cpus.iq.FU_type_0::SimdShift     12599930      0.47%     69.07% # Type of FU issued
system.switch_cpus.iq.FU_type_0::SimdShiftAcc            0      0.00%     69.07% # Type of FU issued
system.switch_cpus.iq.FU_type_0::SimdDiv            0      0.00%     69.07% # Type of FU issued
system.switch_cpus.iq.FU_type_0::SimdSqrt            0      0.00%     69.07% # Type of FU issued
system.switch_cpus.iq.FU_type_0::SimdFloatAdd            0      0.00%     69.07% # Type of FU issued
system.switch_cpus.iq.FU_type_0::SimdFloatAlu            0      0.00%     69.07% # Type of FU issued
system.switch_cpus.iq.FU_type_0::SimdFloatCmp            0      0.00%     69.07% # Type of FU issued
system.switch_cpus.iq.FU_type_0::SimdFloatCvt            0      0.00%     69.07% # Type of FU issued
system.switch_cpus.iq.FU_type_0::SimdFloatDiv            0      0.00%     69.07% # Type of FU issued
system.switch_cpus.iq.FU_type_0::SimdFloatMisc            0      0.00%     69.07% # Type of FU issued
system.switch_cpus.iq.FU_type_0::SimdFloatMult            0      0.00%     69.07% # Type of FU issued
system.switch_cpus.iq.FU_type_0::SimdFloatMultAcc            0      0.00%     69.07% # Type of FU issued
system.switch_cpus.iq.FU_type_0::SimdFloatSqrt            0      0.00%     69.07% # Type of FU issued
system.switch_cpus.iq.FU_type_0::SimdReduceAdd            0      0.00%     69.07% # Type of FU issued
system.switch_cpus.iq.FU_type_0::SimdReduceAlu            0      0.00%     69.07% # Type of FU issued
system.switch_cpus.iq.FU_type_0::SimdReduceCmp            0      0.00%     69.07% # Type of FU issued
system.switch_cpus.iq.FU_type_0::SimdFloatReduceAdd            0      0.00%     69.07% # Type of FU issued
system.switch_cpus.iq.FU_type_0::SimdFloatReduceCmp            0      0.00%     69.07% # Type of FU issued
system.switch_cpus.iq.FU_type_0::SimdAes            0      0.00%     69.07% # Type of FU issued
system.switch_cpus.iq.FU_type_0::SimdAesMix            0      0.00%     69.07% # Type of FU issued
system.switch_cpus.iq.FU_type_0::SimdSha1Hash            0      0.00%     69.07% # Type of FU issued
system.switch_cpus.iq.FU_type_0::SimdSha1Hash2            0      0.00%     69.07% # Type of FU issued
system.switch_cpus.iq.FU_type_0::SimdSha256Hash            0      0.00%     69.07% # Type of FU issued
system.switch_cpus.iq.FU_type_0::SimdSha256Hash2            0      0.00%     69.07% # Type of FU issued
system.switch_cpus.iq.FU_type_0::SimdShaSigma2            0      0.00%     69.07% # Type of FU issued
system.switch_cpus.iq.FU_type_0::SimdShaSigma3            0      0.00%     69.07% # Type of FU issued
system.switch_cpus.iq.FU_type_0::SimdPredAlu            0      0.00%     69.07% # Type of FU issued
system.switch_cpus.iq.FU_type_0::MemRead    637236781     23.59%     92.66% # Type of FU issued
system.switch_cpus.iq.FU_type_0::MemWrite    198204829      7.34%    100.00% # Type of FU issued
system.switch_cpus.iq.FU_type_0::FloatMemRead            0      0.00%    100.00% # Type of FU issued
system.switch_cpus.iq.FU_type_0::FloatMemWrite            0      0.00%    100.00% # Type of FU issued
system.switch_cpus.iq.FU_type_0::IprAccess            0      0.00%    100.00% # Type of FU issued
system.switch_cpus.iq.FU_type_0::InstPrefetch            0      0.00%    100.00% # Type of FU issued
system.switch_cpus.iq.FU_type_0::total     2700999480                       # Type of FU issued
system.switch_cpus.iq.fp_alu_accesses               0                       # Number of floating point alu accesses
system.switch_cpus.iq.fp_inst_queue_reads            0                       # Number of floating instruction queue reads
system.switch_cpus.iq.fp_inst_queue_wakeup_accesses            0                       # Number of floating instruction queue wakeup accesses
system.switch_cpus.iq.fp_inst_queue_writes            0                       # Number of floating instruction queue writes
system.switch_cpus.iq.fu_busy_cnt           173572325                       # FU busy when requested
system.switch_cpus.iq.fu_busy_rate           0.064262                       # FU busy rate (busy events/executed inst)
system.switch_cpus.iq.fu_full::No_OpClass            0      0.00%      0.00% # attempts to use FU when none available
system.switch_cpus.iq.fu_full::IntAlu        12279253      7.07%      7.07% # attempts to use FU when none available
system.switch_cpus.iq.fu_full::IntMult       85110013     49.03%     56.11% # attempts to use FU when none available
system.switch_cpus.iq.fu_full::IntDiv        52955588     30.51%     86.62% # attempts to use FU when none available
system.switch_cpus.iq.fu_full::FloatAdd             0      0.00%     86.62% # attempts to use FU when none available
system.switch_cpus.iq.fu_full::FloatCmp             0      0.00%     86.62% # attempts to use FU when none available
system.switch_cpus.iq.fu_full::FloatCvt             0      0.00%     86.62% # attempts to use FU when none available
system.switch_cpus.iq.fu_full::FloatMult            0      0.00%     86.62% # attempts to use FU when none available
system.switch_cpus.iq.fu_full::FloatMultAcc            0      0.00%     86.62% # attempts to use FU when none available
system.switch_cpus.iq.fu_full::FloatDiv             0      0.00%     86.62% # attempts to use FU when none available
system.switch_cpus.iq.fu_full::FloatMisc            7      0.00%     86.62% # attempts to use FU when none available
system.switch_cpus.iq.fu_full::FloatSqrt            0      0.00%     86.62% # attempts to use FU when none available
system.switch_cpus.iq.fu_full::SimdAdd              0      0.00%     86.62% # attempts to use FU when none available
system.switch_cpus.iq.fu_full::SimdAddAcc            0      0.00%     86.62% # attempts to use FU when none available
system.switch_cpus.iq.fu_full::SimdAlu              0      0.00%     86.62% # attempts to use FU when none available
system.switch_cpus.iq.fu_full::SimdCmp              0      0.00%     86.62% # attempts to use FU when none available
system.switch_cpus.iq.fu_full::SimdCvt              0      0.00%     86.62% # attempts to use FU when none available
system.switch_cpus.iq.fu_full::SimdMisc          1590      0.00%     86.62% # attempts to use FU when none available
system.switch_cpus.iq.fu_full::SimdMult             0      0.00%     86.62% # attempts to use FU when none available
system.switch_cpus.iq.fu_full::SimdMultAcc            0      0.00%     86.62% # attempts to use FU when none available
system.switch_cpus.iq.fu_full::SimdShift           85      0.00%     86.62% # attempts to use FU when none available
system.switch_cpus.iq.fu_full::SimdShiftAcc            0      0.00%     86.62% # attempts to use FU when none available
system.switch_cpus.iq.fu_full::SimdDiv              0      0.00%     86.62% # attempts to use FU when none available
system.switch_cpus.iq.fu_full::SimdSqrt             0      0.00%     86.62% # attempts to use FU when none available
system.switch_cpus.iq.fu_full::SimdFloatAdd            0      0.00%     86.62% # attempts to use FU when none available
system.switch_cpus.iq.fu_full::SimdFloatAlu            0      0.00%     86.62% # attempts to use FU when none available
system.switch_cpus.iq.fu_full::SimdFloatCmp            0      0.00%     86.62% # attempts to use FU when none available
system.switch_cpus.iq.fu_full::SimdFloatCvt            0      0.00%     86.62% # attempts to use FU when none available
system.switch_cpus.iq.fu_full::SimdFloatDiv            0      0.00%     86.62% # attempts to use FU when none available
system.switch_cpus.iq.fu_full::SimdFloatMisc            0      0.00%     86.62% # attempts to use FU when none available
system.switch_cpus.iq.fu_full::SimdFloatMult            0      0.00%     86.62% # attempts to use FU when none available
system.switch_cpus.iq.fu_full::SimdFloatMultAcc            0      0.00%     86.62% # attempts to use FU when none available
system.switch_cpus.iq.fu_full::SimdFloatSqrt            0      0.00%     86.62% # attempts to use FU when none available
system.switch_cpus.iq.fu_full::SimdReduceAdd            0      0.00%     86.62% # attempts to use FU when none available
system.switch_cpus.iq.fu_full::SimdReduceAlu            0      0.00%     86.62% # attempts to use FU when none available
system.switch_cpus.iq.fu_full::SimdReduceCmp            0      0.00%     86.62% # attempts to use FU when none available
system.switch_cpus.iq.fu_full::SimdFloatReduceAdd            0      0.00%     86.62% # attempts to use FU when none available
system.switch_cpus.iq.fu_full::SimdFloatReduceCmp            0      0.00%     86.62% # attempts to use FU when none available
system.switch_cpus.iq.fu_full::SimdAes              0      0.00%     86.62% # attempts to use FU when none available
system.switch_cpus.iq.fu_full::SimdAesMix            0      0.00%     86.62% # attempts to use FU when none available
system.switch_cpus.iq.fu_full::SimdSha1Hash            0      0.00%     86.62% # attempts to use FU when none available
system.switch_cpus.iq.fu_full::SimdSha1Hash2            0      0.00%     86.62% # attempts to use FU when none available
system.switch_cpus.iq.fu_full::SimdSha256Hash            0      0.00%     86.62% # attempts to use FU when none available
system.switch_cpus.iq.fu_full::SimdSha256Hash2            0      0.00%     86.62% # attempts to use FU when none available
system.switch_cpus.iq.fu_full::SimdShaSigma2            0      0.00%     86.62% # attempts to use FU when none available
system.switch_cpus.iq.fu_full::SimdShaSigma3            0      0.00%     86.62% # attempts to use FU when none available
system.switch_cpus.iq.fu_full::SimdPredAlu            0      0.00%     86.62% # attempts to use FU when none available
system.switch_cpus.iq.fu_full::MemRead       18050216     10.40%     97.02% # attempts to use FU when none available
system.switch_cpus.iq.fu_full::MemWrite       5175573      2.98%    100.00% # attempts to use FU when none available
system.switch_cpus.iq.fu_full::FloatMemRead            0      0.00%    100.00% # attempts to use FU when none available
system.switch_cpus.iq.fu_full::FloatMemWrite            0      0.00%    100.00% # attempts to use FU when none available
system.switch_cpus.iq.fu_full::IprAccess            0      0.00%    100.00% # attempts to use FU when none available
system.switch_cpus.iq.fu_full::InstPrefetch            0      0.00%    100.00% # attempts to use FU when none available
system.switch_cpus.iq.int_alu_accesses     2776352541                       # Number of integer alu accesses
system.switch_cpus.iq.int_inst_queue_reads   6617157319                       # Number of integer instruction queue reads
system.switch_cpus.iq.int_inst_queue_wakeup_accesses   2494325107                       # Number of integer instruction queue wakeup accesses
system.switch_cpus.iq.int_inst_queue_writes   3603298711                       # Number of integer instruction queue writes
system.switch_cpus.iq.iqInstsAdded         2920772247                       # Number of instructions added to the IQ (excludes non-spec)
system.switch_cpus.iq.iqInstsIssued        2700999480                       # Number of instructions issued
system.switch_cpus.iq.iqNonSpecInstsAdded         6152                       # Number of non-speculative instructions added to the IQ
system.switch_cpus.iq.iqSquashedInstsExamined    780791383                       # Number of squashed instructions iterated over during squash; mainly for profiling
system.switch_cpus.iq.iqSquashedInstsIssued      2550081                       # Number of squashed instructions issued
system.switch_cpus.iq.iqSquashedNonSpecRemoved         1438                       # Number of squashed non-spec instructions that were removed
system.switch_cpus.iq.iqSquashedOperandsExamined    572014724                       # Number of squashed operands that are examined and possibly removed from graph
system.switch_cpus.iq.issued_per_cycle::samples   1234415861                       # Number of insts issued each cycle
system.switch_cpus.iq.issued_per_cycle::mean     2.188079                       # Number of insts issued each cycle
system.switch_cpus.iq.issued_per_cycle::stdev     2.098186                       # Number of insts issued each cycle
system.switch_cpus.iq.issued_per_cycle::underflows            0      0.00%      0.00% # Number of insts issued each cycle
system.switch_cpus.iq.issued_per_cycle::0    366763450     29.71%     29.71% # Number of insts issued each cycle
system.switch_cpus.iq.issued_per_cycle::1    206991093     16.77%     46.48% # Number of insts issued each cycle
system.switch_cpus.iq.issued_per_cycle::2    178283510     14.44%     60.92% # Number of insts issued each cycle
system.switch_cpus.iq.issued_per_cycle::3    156727711     12.70%     73.62% # Number of insts issued each cycle
system.switch_cpus.iq.issued_per_cycle::4    135407288     10.97%     84.59% # Number of insts issued each cycle
system.switch_cpus.iq.issued_per_cycle::5     82708211      6.70%     91.29% # Number of insts issued each cycle
system.switch_cpus.iq.issued_per_cycle::6     60046113      4.86%     96.15% # Number of insts issued each cycle
system.switch_cpus.iq.issued_per_cycle::7     28096531      2.28%     98.43% # Number of insts issued each cycle
system.switch_cpus.iq.issued_per_cycle::8     19391954      1.57%    100.00% # Number of insts issued each cycle
system.switch_cpus.iq.issued_per_cycle::overflows            0      0.00%    100.00% # Number of insts issued each cycle
system.switch_cpus.iq.issued_per_cycle::min_value            0                       # Number of insts issued each cycle
system.switch_cpus.iq.issued_per_cycle::max_value            8                       # Number of insts issued each cycle
system.switch_cpus.iq.issued_per_cycle::total   1234415861                       # Number of insts issued each cycle
system.switch_cpus.iq.rate                   2.186673                       # Inst issue rate
system.switch_cpus.iq.vec_alu_accesses       98212972                       # Number of vector alu accesses
system.switch_cpus.iq.vec_inst_queue_reads    195379905                       # Number of vector instruction queue reads
system.switch_cpus.iq.vec_inst_queue_wakeup_accesses     93174770                       # Number of vector instruction queue wakeup accesses
system.switch_cpus.iq.vec_inst_queue_writes     98380266                       # Number of vector instruction queue writes
system.switch_cpus.memDep0.conflictingLoads     34052927                       # Number of conflicting loads.
system.switch_cpus.memDep0.conflictingStores     17772511                       # Number of conflicting stores.
system.switch_cpus.memDep0.insertedLoads    665612496                       # Number of loads inserted to the mem dependence unit.
system.switch_cpus.memDep0.insertedStores    215732277                       # Number of stores inserted to the mem dependence unit.
system.switch_cpus.misc_regfile_reads      6534656040                       # number of misc regfile reads
system.switch_cpus.misc_regfile_writes        2668085                       # number of misc regfile writes
system.switch_cpus.numCycles               1235209509                       # number of cpu cycles simulated
system.switch_cpus.numWorkItemsCompleted            0                       # number of work items this cpu completed
system.switch_cpus.numWorkItemsStarted              0                       # number of work items this cpu started
system.switch_cpus.pred_regfile_reads           28605                       # number of predicate regfile reads
system.switch_cpus.pred_regfile_writes          13891                       # number of predicate regfile writes
system.switch_cpus.timesIdled                   95788                       # Number of times that the entire CPU went into an idle state and unscheduled itself
system.switch_cpus.vec_regfile_reads         93537050                       # number of vector regfile reads
system.switch_cpus.vec_regfile_writes        67386199                       # number of vector regfile writes
system.tol2bus.snoop_filter.hit_multi_requests            4                       # Number of requests hitting in the snoop filter with multiple (>1) holders of the requested data.
system.tol2bus.snoop_filter.hit_multi_snoops            0                       # Number of snoops hitting in the snoop filter with multiple (>1) holders of the requested data.
system.tol2bus.snoop_filter.hit_single_requests     10338932                       # Number of requests hitting in the snoop filter with a single holder of the requested data.
system.tol2bus.snoop_filter.hit_single_snoops        86884                       # Number of snoops hitting in the snoop filter with a single holder of the requested data.
system.tol2bus.snoop_filter.tot_requests     19657630                       # Total number of requests made to the snoop filter.
system.tol2bus.snoop_filter.tot_snoops          86884                       # Total number of snoops made to the snoop filter.
system.clk_domain.clock                          1000                       # Clock period in ticks
system.cpu.dcache.demand_hits::.cpu.data            5                       # number of demand (read+write) hits
system.cpu.dcache.demand_hits::.switch_cpus.data    717924048                       # number of demand (read+write) hits
system.cpu.dcache.demand_hits::total        717924053                       # number of demand (read+write) hits
system.cpu.dcache.overall_hits::.cpu.data            5                       # number of overall hits
system.cpu.dcache.overall_hits::.switch_cpus.data    717924048                       # number of overall hits
system.cpu.dcache.overall_hits::total       717924053                       # number of overall hits
system.cpu.dcache.demand_misses::.cpu.data            6                       # number of demand (read+write) misses
system.cpu.dcache.demand_misses::.switch_cpus.data     29234610                       # number of demand (read+write) misses
system.cpu.dcache.demand_misses::total       29234616                       # number of demand (read+write) misses
system.cpu.dcache.overall_misses::.cpu.data            6                       # number of overall misses
system.cpu.dcache.overall_misses::.switch_cpus.data     29234610                       # number of overall misses
system.cpu.dcache.overall_misses::total      29234616                       # number of overall misses
system.cpu.dcache.demand_miss_latency::.switch_cpus.data 409322174402                       # number of demand (read+write) miss cycles
system.cpu.dcache.demand_miss_latency::total 409322174402                       # number of demand (read+write) miss cycles
system.cpu.dcache.overall_miss_latency::.switch_cpus.data 409322174402                       # number of overall miss cycles
system.cpu.dcache.overall_miss_latency::total 409322174402                       # number of overall miss cycles
system.cpu.dcache.demand_accesses::.cpu.data           11                       # number of demand (read+write) accesses
system.cpu.dcache.demand_accesses::.switch_cpus.data    747158658                       # number of demand (read+write) accesses
system.cpu.dcache.demand_accesses::total    747158669                       # number of demand (read+write) accesses
system.cpu.dcache.overall_accesses::.cpu.data           11                       # number of overall (read+write) accesses
system.cpu.dcache.overall_accesses::.switch_cpus.data    747158658                       # number of overall (read+write) accesses
system.cpu.dcache.overall_accesses::total    747158669                       # number of overall (read+write) accesses
system.cpu.dcache.demand_miss_rate::.cpu.data     0.545455                       # miss rate for demand accesses
system.cpu.dcache.demand_miss_rate::.switch_cpus.data     0.039128                       # miss rate for demand accesses
system.cpu.dcache.demand_miss_rate::total     0.039128                       # miss rate for demand accesses
system.cpu.dcache.overall_miss_rate::.cpu.data     0.545455                       # miss rate for overall accesses
system.cpu.dcache.overall_miss_rate::.switch_cpus.data     0.039128                       # miss rate for overall accesses
system.cpu.dcache.overall_miss_rate::total     0.039128                       # miss rate for overall accesses
system.cpu.dcache.demand_avg_miss_latency::.switch_cpus.data 14001.287324                       # average overall miss latency
system.cpu.dcache.demand_avg_miss_latency::total 14001.284450                       # average overall miss latency
system.cpu.dcache.overall_avg_miss_latency::.switch_cpus.data 14001.287324                       # average overall miss latency
system.cpu.dcache.overall_avg_miss_latency::total 14001.284450                       # average overall miss latency
system.cpu.dcache.blocked_cycles::no_mshrs     11482941                       # number of cycles access was blocked
system.cpu.dcache.blocked_cycles::no_targets            0                       # number of cycles access was blocked
system.cpu.dcache.blocked::no_mshrs           1682800                       # number of cycles access was blocked
system.cpu.dcache.blocked::no_targets               0                       # number of cycles access was blocked
system.cpu.dcache.avg_blocked_cycles::no_mshrs     6.823711                       # average number of cycles each access was blocked
system.cpu.dcache.avg_blocked_cycles::no_targets          nan                       # average number of cycles each access was blocked
system.cpu.dcache.ghost_timestamp_misses        12072                       # number of times timestamp policy causes a block to be inaccessible
system.cpu.dcache.ghost_commits               6879917                       # number of cache lines moved from ghost to main
system.cpu.dcache.same_leapfrogs               115164                       # number of times leapfrogging occurs with a shared MSHR request
system.cpu.dcache.writebacks::.writebacks     15199647                       # number of writebacks
system.cpu.dcache.writebacks::total          15199647                       # number of writebacks
system.cpu.dcache.demand_mshr_hits::.switch_cpus.data     19187264                       # number of demand (read+write) MSHR hits
system.cpu.dcache.demand_mshr_hits::total     19187264                       # number of demand (read+write) MSHR hits
system.cpu.dcache.overall_mshr_hits::.switch_cpus.data     19187264                       # number of overall MSHR hits
system.cpu.dcache.overall_mshr_hits::total     19187264                       # number of overall MSHR hits
system.cpu.dcache.demand_mshr_misses::.switch_cpus.data     10047346                       # number of demand (read+write) MSHR misses
system.cpu.dcache.demand_mshr_misses::total     10047346                       # number of demand (read+write) MSHR misses
system.cpu.dcache.overall_mshr_misses::.switch_cpus.data     10047346                       # number of overall MSHR misses
system.cpu.dcache.overall_mshr_misses::total     10047346                       # number of overall MSHR misses
system.cpu.dcache.demand_mshr_miss_latency::.switch_cpus.data 145386230607                       # number of demand (read+write) MSHR miss cycles
system.cpu.dcache.demand_mshr_miss_latency::total 145386230607                       # number of demand (read+write) MSHR miss cycles
system.cpu.dcache.overall_mshr_miss_latency::.switch_cpus.data 145386230607                       # number of overall MSHR miss cycles
system.cpu.dcache.overall_mshr_miss_latency::total 145386230607                       # number of overall MSHR miss cycles
system.cpu.dcache.demand_mshr_miss_rate::.switch_cpus.data     0.013447                       # mshr miss rate for demand accesses
system.cpu.dcache.demand_mshr_miss_rate::total     0.013447                       # mshr miss rate for demand accesses
system.cpu.dcache.overall_mshr_miss_rate::.switch_cpus.data     0.013447                       # mshr miss rate for overall accesses
system.cpu.dcache.overall_mshr_miss_rate::total     0.013447                       # mshr miss rate for overall accesses
system.cpu.dcache.demand_avg_mshr_miss_latency::.switch_cpus.data 14470.112864                       # average overall mshr miss latency
system.cpu.dcache.demand_avg_mshr_miss_latency::total 14470.112864                       # average overall mshr miss latency
system.cpu.dcache.overall_avg_mshr_miss_latency::.switch_cpus.data 14470.112864                       # average overall mshr miss latency
system.cpu.dcache.overall_avg_mshr_miss_latency::total 14470.112864                       # average overall mshr miss latency
system.cpu.dcache.replacements                8319647                       # number of replacements
system.cpu.dcache.ReadReq_hits::.cpu.data            5                       # number of ReadReq hits
system.cpu.dcache.ReadReq_hits::.switch_cpus.data    556713600                       # number of ReadReq hits
system.cpu.dcache.ReadReq_hits::total       556713605                       # number of ReadReq hits
system.cpu.dcache.ReadReq_misses::.cpu.data            6                       # number of ReadReq misses
system.cpu.dcache.ReadReq_misses::.switch_cpus.data     17724108                       # number of ReadReq misses
system.cpu.dcache.ReadReq_misses::total      17724114                       # number of ReadReq misses
system.cpu.dcache.ReadReq_miss_latency::.switch_cpus.data 255293999000                       # number of ReadReq miss cycles
system.cpu.dcache.ReadReq_miss_latency::total 255293999000                       # number of ReadReq miss cycles
system.cpu.dcache.ReadReq_accesses::.cpu.data           11                       # number of ReadReq accesses(hits+misses)
system.cpu.dcache.ReadReq_accesses::.switch_cpus.data    574437708                       # number of ReadReq accesses(hits+misses)
system.cpu.dcache.ReadReq_accesses::total    574437719                       # number of ReadReq accesses(hits+misses)
system.cpu.dcache.ReadReq_miss_rate::.cpu.data     0.545455                       # miss rate for ReadReq accesses
system.cpu.dcache.ReadReq_miss_rate::.switch_cpus.data     0.030855                       # miss rate for ReadReq accesses
system.cpu.dcache.ReadReq_miss_rate::total     0.030855                       # miss rate for ReadReq accesses
system.cpu.dcache.ReadReq_avg_miss_latency::.switch_cpus.data 14403.771349                       # average ReadReq miss latency
system.cpu.dcache.ReadReq_avg_miss_latency::total 14403.766473                       # average ReadReq miss latency
system.cpu.dcache.ReadReq_mshr_hits::.switch_cpus.data     10102747                       # number of ReadReq MSHR hits
system.cpu.dcache.ReadReq_mshr_hits::total     10102747                       # number of ReadReq MSHR hits
system.cpu.dcache.ReadReq_mshr_misses::.switch_cpus.data      7621361                       # number of ReadReq MSHR misses
system.cpu.dcache.ReadReq_mshr_misses::total      7621361                       # number of ReadReq MSHR misses
system.cpu.dcache.ReadReq_mshr_miss_latency::.switch_cpus.data 109865181500                       # number of ReadReq MSHR miss cycles
system.cpu.dcache.ReadReq_mshr_miss_latency::total 109865181500                       # number of ReadReq MSHR miss cycles
system.cpu.dcache.ReadReq_mshr_miss_rate::.switch_cpus.data     0.013268                       # mshr miss rate for ReadReq accesses
system.cpu.dcache.ReadReq_mshr_miss_rate::total     0.013268                       # mshr miss rate for ReadReq accesses
system.cpu.dcache.ReadReq_avg_mshr_miss_latency::.switch_cpus.data 14415.428097                       # average ReadReq mshr miss latency
system.cpu.dcache.ReadReq_avg_mshr_miss_latency::total 14415.428097                       # average ReadReq mshr miss latency
system.cpu.dcache.WriteReq_hits::.switch_cpus.data    161210448                       # number of WriteReq hits
system.cpu.dcache.WriteReq_hits::total      161210448                       # number of WriteReq hits
system.cpu.dcache.WriteReq_misses::.switch_cpus.data     11510477                       # number of WriteReq misses
system.cpu.dcache.WriteReq_misses::total     11510477                       # number of WriteReq misses
system.cpu.dcache.WriteReq_miss_latency::.switch_cpus.data 154027677914                       # number of WriteReq miss cycles
system.cpu.dcache.WriteReq_miss_latency::total 154027677914                       # number of WriteReq miss cycles
system.cpu.dcache.WriteReq_accesses::.switch_cpus.data    172720925                       # number of WriteReq accesses(hits+misses)
system.cpu.dcache.WriteReq_accesses::total    172720925                       # number of WriteReq accesses(hits+misses)
system.cpu.dcache.WriteReq_miss_rate::.switch_cpus.data     0.066642                       # miss rate for WriteReq accesses
system.cpu.dcache.WriteReq_miss_rate::total     0.066642                       # miss rate for WriteReq accesses
system.cpu.dcache.WriteReq_avg_miss_latency::.switch_cpus.data 13381.519976                       # average WriteReq miss latency
system.cpu.dcache.WriteReq_avg_miss_latency::total 13381.519976                       # average WriteReq miss latency
system.cpu.dcache.WriteReq_mshr_hits::.switch_cpus.data      9084517                       # number of WriteReq MSHR hits
system.cpu.dcache.WriteReq_mshr_hits::total      9084517                       # number of WriteReq MSHR hits
system.cpu.dcache.WriteReq_mshr_misses::.switch_cpus.data      2425960                       # number of WriteReq MSHR misses
system.cpu.dcache.WriteReq_mshr_misses::total      2425960                       # number of WriteReq MSHR misses
system.cpu.dcache.WriteReq_mshr_miss_latency::.switch_cpus.data  35520576619                       # number of WriteReq MSHR miss cycles
system.cpu.dcache.WriteReq_mshr_miss_latency::total  35520576619                       # number of WriteReq MSHR miss cycles
system.cpu.dcache.WriteReq_mshr_miss_rate::.switch_cpus.data     0.014046                       # mshr miss rate for WriteReq accesses
system.cpu.dcache.WriteReq_mshr_miss_rate::total     0.014046                       # mshr miss rate for WriteReq accesses
system.cpu.dcache.WriteReq_avg_mshr_miss_latency::.switch_cpus.data 14641.864095                       # average WriteReq mshr miss latency
system.cpu.dcache.WriteReq_avg_mshr_miss_latency::total 14641.864095                       # average WriteReq mshr miss latency
system.cpu.dcache.WriteLineReq_misses::.switch_cpus.data           25                       # number of WriteLineReq misses
system.cpu.dcache.WriteLineReq_misses::total           25                       # number of WriteLineReq misses
system.cpu.dcache.WriteLineReq_miss_latency::.switch_cpus.data       497488                       # number of WriteLineReq miss cycles
system.cpu.dcache.WriteLineReq_miss_latency::total       497488                       # number of WriteLineReq miss cycles
system.cpu.dcache.WriteLineReq_accesses::.switch_cpus.data           25                       # number of WriteLineReq accesses(hits+misses)
system.cpu.dcache.WriteLineReq_accesses::total           25                       # number of WriteLineReq accesses(hits+misses)
system.cpu.dcache.WriteLineReq_miss_rate::.switch_cpus.data            1                       # miss rate for WriteLineReq accesses
system.cpu.dcache.WriteLineReq_miss_rate::total            1                       # miss rate for WriteLineReq accesses
system.cpu.dcache.WriteLineReq_avg_miss_latency::.switch_cpus.data 19899.520000                       # average WriteLineReq miss latency
system.cpu.dcache.WriteLineReq_avg_miss_latency::total 19899.520000                       # average WriteLineReq miss latency
system.cpu.dcache.WriteLineReq_mshr_misses::.switch_cpus.data           25                       # number of WriteLineReq MSHR misses
system.cpu.dcache.WriteLineReq_mshr_misses::total           25                       # number of WriteLineReq MSHR misses
system.cpu.dcache.WriteLineReq_mshr_miss_latency::.switch_cpus.data       472488                       # number of WriteLineReq MSHR miss cycles
system.cpu.dcache.WriteLineReq_mshr_miss_latency::total       472488                       # number of WriteLineReq MSHR miss cycles
system.cpu.dcache.WriteLineReq_mshr_miss_rate::.switch_cpus.data            1                       # mshr miss rate for WriteLineReq accesses
system.cpu.dcache.WriteLineReq_mshr_miss_rate::total            1                       # mshr miss rate for WriteLineReq accesses
system.cpu.dcache.WriteLineReq_avg_mshr_miss_latency::.switch_cpus.data 18899.520000                       # average WriteLineReq mshr miss latency
system.cpu.dcache.WriteLineReq_avg_mshr_miss_latency::total 18899.520000                       # average WriteLineReq mshr miss latency
system.cpu.dcache.SwapReq_hits::.switch_cpus.data          101                       # number of SwapReq hits
system.cpu.dcache.SwapReq_hits::total             101                       # number of SwapReq hits
system.cpu.dcache.SwapReq_misses::.switch_cpus.data            4                       # number of SwapReq misses
system.cpu.dcache.SwapReq_misses::total             4                       # number of SwapReq misses
system.cpu.dcache.SwapReq_miss_latency::.switch_cpus.data        97000                       # number of SwapReq miss cycles
system.cpu.dcache.SwapReq_miss_latency::total        97000                       # number of SwapReq miss cycles
system.cpu.dcache.SwapReq_accesses::.switch_cpus.data          105                       # number of SwapReq accesses(hits+misses)
system.cpu.dcache.SwapReq_accesses::total          105                       # number of SwapReq accesses(hits+misses)
system.cpu.dcache.SwapReq_miss_rate::.switch_cpus.data     0.038095                       # miss rate for SwapReq accesses
system.cpu.dcache.SwapReq_miss_rate::total     0.038095                       # miss rate for SwapReq accesses
system.cpu.dcache.SwapReq_avg_miss_latency::.switch_cpus.data        24250                       # average SwapReq miss latency
system.cpu.dcache.SwapReq_avg_miss_latency::total        24250                       # average SwapReq miss latency
system.cpu.dcache.SwapReq_mshr_misses::.switch_cpus.data            4                       # number of SwapReq MSHR misses
system.cpu.dcache.SwapReq_mshr_misses::total            4                       # number of SwapReq MSHR misses
system.cpu.dcache.SwapReq_mshr_miss_latency::.switch_cpus.data        93000                       # number of SwapReq MSHR miss cycles
system.cpu.dcache.SwapReq_mshr_miss_latency::total        93000                       # number of SwapReq MSHR miss cycles
system.cpu.dcache.SwapReq_mshr_miss_rate::.switch_cpus.data     0.038095                       # mshr miss rate for SwapReq accesses
system.cpu.dcache.SwapReq_mshr_miss_rate::total     0.038095                       # mshr miss rate for SwapReq accesses
system.cpu.dcache.SwapReq_avg_mshr_miss_latency::.switch_cpus.data        23250                       # average SwapReq mshr miss latency
system.cpu.dcache.SwapReq_avg_mshr_miss_latency::total        23250                       # average SwapReq mshr miss latency
system.cpu.dcache.ghosttags.tagsinuse    -4100955.227592                       # Cycle average of tags in use
system.cpu.dcache.ghosttags.total_refs              0                       # Total number of references to valid blocks.
system.cpu.dcache.ghosttags.sampled_refs            0                       # Sample count of references to valid blocks.
system.cpu.dcache.ghosttags.avg_refs              nan                       # Average number of references to valid blocks.
system.cpu.dcache.ghosttags.warmup_cycle 5357840329500                       # Cycle when the warmup percentage was hit.
system.cpu.dcache.ghosttags.occ_blocks::.switch_cpus.data 3752270.747759                       # Average occupied blocks per requestor
system.cpu.dcache.ghosttags.occ_percent::.switch_cpus.data 117258.460867                       # Average percentage of cache occupancy
system.cpu.dcache.ghosttags.occ_percent::total 117258.460867                       # Average percentage of cache occupancy
system.cpu.dcache.ghosttags.tag_accesses     71348580                       # Number of tag accesses
system.cpu.dcache.ghosttags.data_accesses     71348580                       # Number of data accesses
system.cpu.dcache.ghosttags.repl_invalid            0                       # Number of initial replacements
system.cpu.dcache.ghosttags.repl_valid_tag            0                       # Number of local replacements
system.cpu.dcache.ghosttags.repl_valid_data            0                       # Number of global replacements
system.cpu.dcache.ghosttags.power_state.pwrStateResidencyTicks::UNDEFINED 5975444417500                       # Cumulative time (in ticks) in various power states
system.cpu.dcache.power_state.pwrStateResidencyTicks::UNDEFINED 5975444417500                       # Cumulative time (in ticks) in various power states
system.cpu.dcache.tags.tagsinuse         -3745878.387836                       # Cycle average of tags in use
system.cpu.dcache.tags.total_refs           736063797                       # Total number of references to valid blocks.
system.cpu.dcache.tags.sampled_refs          15916679                       # Sample count of references to valid blocks.
system.cpu.dcache.tags.avg_refs             46.244810                       # Average number of references to valid blocks.
system.cpu.dcache.tags.warmup_cycle      5357839911000                       # Cycle when the warmup percentage was hit.
system.cpu.dcache.tags.occ_blocks::.cpu.data     0.001061                       # Average occupied blocks per requestor
system.cpu.dcache.tags.occ_blocks::.switch_cpus.data -3745878.388897                       # Average occupied blocks per requestor
system.cpu.dcache.tags.occ_percent::.cpu.data     0.000002                       # Average percentage of cache occupancy
system.cpu.dcache.tags.occ_percent::.switch_cpus.data -7316.168728                       # Average percentage of cache occupancy
system.cpu.dcache.tags.occ_percent::total -7316.168726                       # Average percentage of cache occupancy
system.cpu.dcache.tags.occ_task_id_blocks::1024          512                       # Occupied blocks per task id
system.cpu.dcache.tags.age_task_id_blocks_1024::0           21                       # Occupied blocks per task id
system.cpu.dcache.tags.age_task_id_blocks_1024::1          465                       # Occupied blocks per task id
system.cpu.dcache.tags.age_task_id_blocks_1024::2           20                       # Occupied blocks per task id
system.cpu.dcache.tags.age_task_id_blocks_1024::3            3                       # Occupied blocks per task id
system.cpu.dcache.tags.age_task_id_blocks_1024::4            3                       # Occupied blocks per task id
system.cpu.dcache.tags.occ_task_id_percent::1024            1                       # Percentage of cache occupancy per task id
system.cpu.dcache.tags.tag_accesses        5985590349                       # Number of tag accesses
system.cpu.dcache.tags.data_accesses       5985590349                       # Number of data accesses
system.cpu.dcache.tags.repl_invalid                 0                       # Number of initial replacements
system.cpu.dcache.tags.repl_valid_tag               0                       # Number of local replacements
system.cpu.dcache.tags.repl_valid_data              0                       # Number of global replacements
system.cpu.dcache.tags.power_state.pwrStateResidencyTicks::UNDEFINED 5975444417500                       # Cumulative time (in ticks) in various power states
system.cpu.dtb.instHits                             0                       # ITB inst hits
system.cpu.dtb.instMisses                           0                       # ITB inst misses
system.cpu.dtb.readHits                             0                       # DTB read hits
system.cpu.dtb.readMisses                           0                       # DTB read misses
system.cpu.dtb.writeHits                            0                       # DTB write hits
system.cpu.dtb.writeMisses                          0                       # DTB write misses
system.cpu.dtb.inserts                              0                       # Number of times an entry is inserted into the TLB
system.cpu.dtb.flushTlb                             2                       # Number of times complete TLB was flushed
system.cpu.dtb.flushTlbMva                          0                       # Number of times TLB was flushed by MVA
system.cpu.dtb.flushTlbMvaAsid                      0                       # Number of times TLB was flushed by MVA & ASID
system.cpu.dtb.flushTlbAsid                         0                       # Number of times TLB was flushed by ASID
system.cpu.dtb.flushedEntries                       0                       # Number of entries that have been flushed from TLB
system.cpu.dtb.alignFaults                          0                       # Number of TLB faults due to alignment restrictions
system.cpu.dtb.prefetchFaults                       0                       # Number of TLB faults due to prefetch
system.cpu.dtb.domainFaults                         0                       # Number of TLB faults due to domain restrictions
system.cpu.dtb.permsFaults                          0                       # Number of TLB faults due to permissions restrictions
system.cpu.dtb.readAccesses                         0                       # DTB read accesses
system.cpu.dtb.writeAccesses                        0                       # DTB write accesses
system.cpu.dtb.instAccesses                         0                       # ITB inst accesses
system.cpu.dtb.hits                                 0                       # Total TLB (inst and data) hits
system.cpu.dtb.misses                               0                       # Total TLB (inst and data) misses
system.cpu.dtb.accesses                             0                       # Total TLB (inst and data) accesses
system.cpu.dtb.stage2_mmu.stage2_tlb.instHits            0                       # ITB inst hits
system.cpu.dtb.stage2_mmu.stage2_tlb.instMisses            0                       # ITB inst misses
system.cpu.dtb.stage2_mmu.stage2_tlb.readHits            0                       # DTB read hits
system.cpu.dtb.stage2_mmu.stage2_tlb.readMisses            0                       # DTB read misses
system.cpu.dtb.stage2_mmu.stage2_tlb.writeHits            0                       # DTB write hits
system.cpu.dtb.stage2_mmu.stage2_tlb.writeMisses            0                       # DTB write misses
system.cpu.dtb.stage2_mmu.stage2_tlb.inserts            0                       # Number of times an entry is inserted into the TLB
system.cpu.dtb.stage2_mmu.stage2_tlb.flushTlb            0                       # Number of times complete TLB was flushed
system.cpu.dtb.stage2_mmu.stage2_tlb.flushTlbMva            0                       # Number of times TLB was flushed by MVA
system.cpu.dtb.stage2_mmu.stage2_tlb.flushTlbMvaAsid            0                       # Number of times TLB was flushed by MVA & ASID
system.cpu.dtb.stage2_mmu.stage2_tlb.flushTlbAsid            0                       # Number of times TLB was flushed by ASID
system.cpu.dtb.stage2_mmu.stage2_tlb.flushedEntries            0                       # Number of entries that have been flushed from TLB
system.cpu.dtb.stage2_mmu.stage2_tlb.alignFaults            0                       # Number of TLB faults due to alignment restrictions
system.cpu.dtb.stage2_mmu.stage2_tlb.prefetchFaults            0                       # Number of TLB faults due to prefetch
system.cpu.dtb.stage2_mmu.stage2_tlb.domainFaults            0                       # Number of TLB faults due to domain restrictions
system.cpu.dtb.stage2_mmu.stage2_tlb.permsFaults            0                       # Number of TLB faults due to permissions restrictions
system.cpu.dtb.stage2_mmu.stage2_tlb.readAccesses            0                       # DTB read accesses
system.cpu.dtb.stage2_mmu.stage2_tlb.writeAccesses            0                       # DTB write accesses
system.cpu.dtb.stage2_mmu.stage2_tlb.instAccesses            0                       # ITB inst accesses
system.cpu.dtb.stage2_mmu.stage2_tlb.hits            0                       # Total TLB (inst and data) hits
system.cpu.dtb.stage2_mmu.stage2_tlb.misses            0                       # Total TLB (inst and data) misses
system.cpu.dtb.stage2_mmu.stage2_tlb.accesses            0                       # Total TLB (inst and data) accesses
system.cpu.dtb.stage2_mmu.stage2_tlb.walker.walks            0                       # Table walker walks requested
system.cpu.dtb.stage2_mmu.stage2_tlb.walker.requestOrigin_Requested::Data            0                       # Table walker requests started/completed, data/inst
system.cpu.dtb.stage2_mmu.stage2_tlb.walker.requestOrigin_Requested::Inst            0                       # Table walker requests started/completed, data/inst
system.cpu.dtb.stage2_mmu.stage2_tlb.walker.requestOrigin_Requested::total            0                       # Table walker requests started/completed, data/inst
system.cpu.dtb.stage2_mmu.stage2_tlb.walker.requestOrigin_Completed::Data            0                       # Table walker requests started/completed, data/inst
system.cpu.dtb.stage2_mmu.stage2_tlb.walker.requestOrigin_Completed::Inst            0                       # Table walker requests started/completed, data/inst
system.cpu.dtb.stage2_mmu.stage2_tlb.walker.requestOrigin_Completed::total            0                       # Table walker requests started/completed, data/inst
system.cpu.dtb.stage2_mmu.stage2_tlb.walker.requestOrigin::total            0                       # Table walker requests started/completed, data/inst
system.cpu.dtb.stage2_mmu.stage2_tlb.walker.power_state.pwrStateResidencyTicks::UNDEFINED 5975444417500                       # Cumulative time (in ticks) in various power states
system.cpu.dtb.walker.walks                         0                       # Table walker walks requested
system.cpu.dtb.walker.requestOrigin_Requested::Data            0                       # Table walker requests started/completed, data/inst
system.cpu.dtb.walker.requestOrigin_Requested::Inst            0                       # Table walker requests started/completed, data/inst
system.cpu.dtb.walker.requestOrigin_Requested::total            0                       # Table walker requests started/completed, data/inst
system.cpu.dtb.walker.requestOrigin_Completed::Data            0                       # Table walker requests started/completed, data/inst
system.cpu.dtb.walker.requestOrigin_Completed::Inst            0                       # Table walker requests started/completed, data/inst
system.cpu.dtb.walker.requestOrigin_Completed::total            0                       # Table walker requests started/completed, data/inst
system.cpu.dtb.walker.requestOrigin::total            0                       # Table walker requests started/completed, data/inst
system.cpu.dtb.walker.power_state.pwrStateResidencyTicks::UNDEFINED 5975444417500                       # Cumulative time (in ticks) in various power states
system.cpu.icache.demand_hits::.cpu.inst           18                       # number of demand (read+write) hits
system.cpu.icache.demand_hits::.switch_cpus.inst    450518685                       # number of demand (read+write) hits
system.cpu.icache.demand_hits::total        450518703                       # number of demand (read+write) hits
system.cpu.icache.overall_hits::.cpu.inst           18                       # number of overall hits
system.cpu.icache.overall_hits::.switch_cpus.inst    450518685                       # number of overall hits
system.cpu.icache.overall_hits::total       450518703                       # number of overall hits
system.cpu.icache.demand_misses::.cpu.inst            2                       # number of demand (read+write) misses
system.cpu.icache.demand_misses::.switch_cpus.inst       313139                       # number of demand (read+write) misses
system.cpu.icache.demand_misses::total         313141                       # number of demand (read+write) misses
system.cpu.icache.overall_misses::.cpu.inst            2                       # number of overall misses
system.cpu.icache.overall_misses::.switch_cpus.inst       313139                       # number of overall misses
system.cpu.icache.overall_misses::total        313141                       # number of overall misses
system.cpu.icache.demand_miss_latency::.switch_cpus.inst   7408362988                       # number of demand (read+write) miss cycles
system.cpu.icache.demand_miss_latency::total   7408362988                       # number of demand (read+write) miss cycles
system.cpu.icache.overall_miss_latency::.switch_cpus.inst   7408362988                       # number of overall miss cycles
system.cpu.icache.overall_miss_latency::total   7408362988                       # number of overall miss cycles
system.cpu.icache.demand_accesses::.cpu.inst           20                       # number of demand (read+write) accesses
system.cpu.icache.demand_accesses::.switch_cpus.inst    450831824                       # number of demand (read+write) accesses
system.cpu.icache.demand_accesses::total    450831844                       # number of demand (read+write) accesses
system.cpu.icache.overall_accesses::.cpu.inst           20                       # number of overall (read+write) accesses
system.cpu.icache.overall_accesses::.switch_cpus.inst    450831824                       # number of overall (read+write) accesses
system.cpu.icache.overall_accesses::total    450831844                       # number of overall (read+write) accesses
system.cpu.icache.demand_miss_rate::.cpu.inst     0.100000                       # miss rate for demand accesses
system.cpu.icache.demand_miss_rate::.switch_cpus.inst     0.000695                       # miss rate for demand accesses
system.cpu.icache.demand_miss_rate::total     0.000695                       # miss rate for demand accesses
system.cpu.icache.overall_miss_rate::.cpu.inst     0.100000                       # miss rate for overall accesses
system.cpu.icache.overall_miss_rate::.switch_cpus.inst     0.000695                       # miss rate for overall accesses
system.cpu.icache.overall_miss_rate::total     0.000695                       # miss rate for overall accesses
system.cpu.icache.demand_avg_miss_latency::.switch_cpus.inst 23658.384896                       # average overall miss latency
system.cpu.icache.demand_avg_miss_latency::total 23658.233792                       # average overall miss latency
system.cpu.icache.overall_avg_miss_latency::.switch_cpus.inst 23658.384896                       # average overall miss latency
system.cpu.icache.overall_avg_miss_latency::total 23658.233792                       # average overall miss latency
system.cpu.icache.blocked_cycles::no_mshrs         6804                       # number of cycles access was blocked
system.cpu.icache.blocked_cycles::no_targets            0                       # number of cycles access was blocked
system.cpu.icache.blocked::no_mshrs               151                       # number of cycles access was blocked
system.cpu.icache.blocked::no_targets               0                       # number of cycles access was blocked
system.cpu.icache.avg_blocked_cycles::no_mshrs    45.059603                       # average number of cycles each access was blocked
system.cpu.icache.avg_blocked_cycles::no_targets          nan                       # average number of cycles each access was blocked
system.cpu.icache.ghost_timestamp_misses            0                       # number of times timestamp policy causes a block to be inaccessible
system.cpu.icache.ghost_commits                116627                       # number of cache lines moved from ghost to main
system.cpu.icache.same_leapfrogs                    0                       # number of times leapfrogging occurs with a shared MSHR request
system.cpu.icache.writebacks::.writebacks       232755                       # number of writebacks
system.cpu.icache.writebacks::total            232755                       # number of writebacks
system.cpu.icache.demand_mshr_hits::.switch_cpus.inst        31290                       # number of demand (read+write) MSHR hits
system.cpu.icache.demand_mshr_hits::total        31290                       # number of demand (read+write) MSHR hits
system.cpu.icache.overall_mshr_hits::.switch_cpus.inst        31290                       # number of overall MSHR hits
system.cpu.icache.overall_mshr_hits::total        31290                       # number of overall MSHR hits
system.cpu.icache.demand_mshr_misses::.switch_cpus.inst       281849                       # number of demand (read+write) MSHR misses
system.cpu.icache.demand_mshr_misses::total       281849                       # number of demand (read+write) MSHR misses
system.cpu.icache.overall_mshr_misses::.switch_cpus.inst       281849                       # number of overall MSHR misses
system.cpu.icache.overall_mshr_misses::total       281849                       # number of overall MSHR misses
system.cpu.icache.demand_mshr_miss_latency::.switch_cpus.inst   6621858489                       # number of demand (read+write) MSHR miss cycles
system.cpu.icache.demand_mshr_miss_latency::total   6621858489                       # number of demand (read+write) MSHR miss cycles
system.cpu.icache.overall_mshr_miss_latency::.switch_cpus.inst   6621858489                       # number of overall MSHR miss cycles
system.cpu.icache.overall_mshr_miss_latency::total   6621858489                       # number of overall MSHR miss cycles
system.cpu.icache.demand_mshr_miss_rate::.switch_cpus.inst     0.000625                       # mshr miss rate for demand accesses
system.cpu.icache.demand_mshr_miss_rate::total     0.000625                       # mshr miss rate for demand accesses
system.cpu.icache.overall_mshr_miss_rate::.switch_cpus.inst     0.000625                       # mshr miss rate for overall accesses
system.cpu.icache.overall_mshr_miss_rate::total     0.000625                       # mshr miss rate for overall accesses
system.cpu.icache.demand_avg_mshr_miss_latency::.switch_cpus.inst 23494.347998                       # average overall mshr miss latency
system.cpu.icache.demand_avg_mshr_miss_latency::total 23494.347998                       # average overall mshr miss latency
system.cpu.icache.overall_avg_mshr_miss_latency::.switch_cpus.inst 23494.347998                       # average overall mshr miss latency
system.cpu.icache.overall_avg_mshr_miss_latency::total 23494.347998                       # average overall mshr miss latency
system.cpu.icache.replacements                 116119                       # number of replacements
system.cpu.icache.ReadReq_hits::.cpu.inst           18                       # number of ReadReq hits
system.cpu.icache.ReadReq_hits::.switch_cpus.inst    450518685                       # number of ReadReq hits
system.cpu.icache.ReadReq_hits::total       450518703                       # number of ReadReq hits
system.cpu.icache.ReadReq_misses::.cpu.inst            2                       # number of ReadReq misses
system.cpu.icache.ReadReq_misses::.switch_cpus.inst       313139                       # number of ReadReq misses
system.cpu.icache.ReadReq_misses::total        313141                       # number of ReadReq misses
system.cpu.icache.ReadReq_miss_latency::.switch_cpus.inst   7408362988                       # number of ReadReq miss cycles
system.cpu.icache.ReadReq_miss_latency::total   7408362988                       # number of ReadReq miss cycles
system.cpu.icache.ReadReq_accesses::.cpu.inst           20                       # number of ReadReq accesses(hits+misses)
system.cpu.icache.ReadReq_accesses::.switch_cpus.inst    450831824                       # number of ReadReq accesses(hits+misses)
system.cpu.icache.ReadReq_accesses::total    450831844                       # number of ReadReq accesses(hits+misses)
system.cpu.icache.ReadReq_miss_rate::.cpu.inst     0.100000                       # miss rate for ReadReq accesses
system.cpu.icache.ReadReq_miss_rate::.switch_cpus.inst     0.000695                       # miss rate for ReadReq accesses
system.cpu.icache.ReadReq_miss_rate::total     0.000695                       # miss rate for ReadReq accesses
system.cpu.icache.ReadReq_avg_miss_latency::.switch_cpus.inst 23658.384896                       # average ReadReq miss latency
system.cpu.icache.ReadReq_avg_miss_latency::total 23658.233792                       # average ReadReq miss latency
system.cpu.icache.ReadReq_mshr_hits::.switch_cpus.inst        31290                       # number of ReadReq MSHR hits
system.cpu.icache.ReadReq_mshr_hits::total        31290                       # number of ReadReq MSHR hits
system.cpu.icache.ReadReq_mshr_misses::.switch_cpus.inst       281849                       # number of ReadReq MSHR misses
system.cpu.icache.ReadReq_mshr_misses::total       281849                       # number of ReadReq MSHR misses
system.cpu.icache.ReadReq_mshr_miss_latency::.switch_cpus.inst   6621858489                       # number of ReadReq MSHR miss cycles
system.cpu.icache.ReadReq_mshr_miss_latency::total   6621858489                       # number of ReadReq MSHR miss cycles
system.cpu.icache.ReadReq_mshr_miss_rate::.switch_cpus.inst     0.000625                       # mshr miss rate for ReadReq accesses
system.cpu.icache.ReadReq_mshr_miss_rate::total     0.000625                       # mshr miss rate for ReadReq accesses
system.cpu.icache.ReadReq_avg_mshr_miss_latency::.switch_cpus.inst 23494.347998                       # average ReadReq mshr miss latency
system.cpu.icache.ReadReq_avg_mshr_miss_latency::total 23494.347998                       # average ReadReq mshr miss latency
system.cpu.icache.ghosttags.tagsinuse    -60716.604323                       # Cycle average of tags in use
system.cpu.icache.ghosttags.total_refs              0                       # Total number of references to valid blocks.
system.cpu.icache.ghosttags.sampled_refs            0                       # Sample count of references to valid blocks.
system.cpu.icache.ghosttags.avg_refs              nan                       # Average number of references to valid blocks.
system.cpu.icache.ghosttags.warmup_cycle 5357840149500                       # Cycle when the warmup percentage was hit.
system.cpu.icache.ghosttags.occ_blocks::.switch_cpus.inst 144576.873228                       # Average occupied blocks per requestor
system.cpu.icache.ghosttags.occ_percent::.switch_cpus.inst  4518.027288                       # Average percentage of cache occupancy
system.cpu.icache.ghosttags.occ_percent::total  4518.027288                       # Average percentage of cache occupancy
system.cpu.icache.ghosttags.tag_accesses       978924                       # Number of tag accesses
system.cpu.icache.ghosttags.data_accesses       978924                       # Number of data accesses
system.cpu.icache.ghosttags.repl_invalid            0                       # Number of initial replacements
system.cpu.icache.ghosttags.repl_valid_tag            0                       # Number of local replacements
system.cpu.icache.ghosttags.repl_valid_data            0                       # Number of global replacements
system.cpu.icache.ghosttags.power_state.pwrStateResidencyTicks::UNDEFINED 5975444417500                       # Cumulative time (in ticks) in various power states
system.cpu.icache.power_state.pwrStateResidencyTicks::UNDEFINED 5975444417500                       # Cumulative time (in ticks) in various power states
system.cpu.icache.tags.tagsinuse         -144082.510675                       # Cycle average of tags in use
system.cpu.icache.tags.total_refs           450917171                       # Total number of references to valid blocks.
system.cpu.icache.tags.sampled_refs            398468                       # Sample count of references to valid blocks.
system.cpu.icache.tags.avg_refs           1131.627059                       # Average number of references to valid blocks.
system.cpu.icache.tags.warmup_cycle      5357839910000                       # Cycle when the warmup percentage was hit.
system.cpu.icache.tags.occ_blocks::.cpu.inst     0.290098                       # Average occupied blocks per requestor
system.cpu.icache.tags.occ_blocks::.switch_cpus.inst -144082.800773                       # Average occupied blocks per requestor
system.cpu.icache.tags.occ_percent::.cpu.inst     0.000567                       # Average percentage of cache occupancy
system.cpu.icache.tags.occ_percent::.switch_cpus.inst  -281.411720                       # Average percentage of cache occupancy
[...]
system.switch_cpus.fetch.cycles             734615932                       # Number of cycles fetch has run and was not squashing or blocked
system.switch_cpus.fetch.squashCycles        57165344                       # Number of cycles fetch has spent squashing
system.switch_cpus.fetch.miscStallCycles         1463                       # Number of cycles fetch has spent waiting on interrupts,or bad addresses, or out of MSHRs
system.switch_cpus.fetch.pendingTrapStallCycles         7766                       # Number of stall cycles due to pending traps
system.switch_cpus.fetch.icacheWaitRetryStallCycles          442                       # Number of stall cycles due to full MSHR
system.switch_cpus.fetch.cacheLines         450831825                       # Number of cache lines fetched
system.switch_cpus.fetch.icacheSquashes      11282264                       # Number of outstanding Icache misses that were squashed
system.switch_cpus.fetch.nisnDist::samples   1234415861                       # Number of instructions fetched each cycle (Total)
system.switch_cpus.fetch.nisnDist::mean      2.669579                       # Number of instructions fetched each cycle (Total)
system.switch_cpus.fetch.nisnDist::stdev     3.196868                       # Number of instructions fetched each cycle (Total)
system.switch_cpus.fetch.nisnDist::underflows            0      0.00%      0.00% # Number of instructions fetched each cycle (Total)
system.switch_cpus.fetch.nisnDist::0        606489632     49.13%     49.13% # Number of instructions fetched each cycle (Total)
system.switch_cpus.fetch.nisnDist::1         71229146      5.77%     54.90% # Number of instructions fetched each cycle (Total)
system.switch_cpus.fetch.nisnDist::2         61131013      4.95%     59.85% # Number of instructions fetched each cycle (Total)
system.switch_cpus.fetch.nisnDist::3         57115257      4.63%     64.48% # Number of instructions fetched each cycle (Total)
system.switch_cpus.fetch.nisnDist::4         70058134      5.68%     70.16% # Number of instructions fetched each cycle (Total)
system.switch_cpus.fetch.nisnDist::5         31519057      2.55%     72.71% # Number of instructions fetched each cycle (Total)
system.switch_cpus.fetch.nisnDist::6         74287500      6.02%     78.73% # Number of instructions fetched each cycle (Total)
system.switch_cpus.fetch.nisnDist::7         53707948      4.35%     83.08% # Number of instructions fetched each cycle (Total)
system.switch_cpus.fetch.nisnDist::8        208878174     16.92%    100.00% # Number of instructions fetched each cycle (Total)
system.switch_cpus.fetch.nisnDist::overflows            0      0.00%    100.00% # Number of instructions fetched each cycle (Total)
system.switch_cpus.fetch.nisnDist::min_value            0                       # Number of instructions fetched each cycle (Total)
system.switch_cpus.fetch.nisnDist::max_value            8                       # Number of instructions fetched each cycle (Total)
system.switch_cpus.fetch.nisnDist::total   1234415861                       # Number of instructions fetched each cycle (Total)
system.switch_cpus.fetch.branchRate          0.410791                       # Number of branch fetches per cycle
system.switch_cpus.fetch.rate                2.504089                       # Number of inst fetches per cycle
system.switch_cpus.itb.instHits                     0                       # ITB inst hits
system.switch_cpus.itb.instMisses                   0                       # ITB inst misses
system.switch_cpus.itb.readHits                     0                       # DTB read hits
system.switch_cpus.itb.readMisses                   0                       # DTB read misses
system.switch_cpus.itb.writeHits                    0                       # DTB write hits
system.switch_cpus.itb.writeMisses                  0                       # DTB write misses
system.switch_cpus.itb.inserts                      0                       # Number of times an entry is inserted into the TLB
system.switch_cpus.itb.flushTlb                     2                       # Number of times complete TLB was flushed
system.switch_cpus.itb.flushTlbMva                  0                       # Number of times TLB was flushed by MVA
system.switch_cpus.itb.flushTlbMvaAsid              0                       # Number of times TLB was flushed by MVA & ASID
system.switch_cpus.itb.flushTlbAsid                 0                       # Number of times TLB was flushed by ASID
system.switch_cpus.itb.flushedEntries               0                       # Number of entries that have been flushed from TLB
system.switch_cpus.itb.alignFaults                  0                       # Number of TLB faults due to alignment restrictions
system.switch_cpus.itb.prefetchFaults               0                       # Number of TLB faults due to prefetch
system.switch_cpus.itb.domainFaults                 0                       # Number of TLB faults due to domain restrictions
system.switch_cpus.itb.permsFaults                  0                       # Number of TLB faults due to permissions restrictions
system.switch_cpus.itb.readAccesses                 0                       # DTB read accesses
system.switch_cpus.itb.writeAccesses                0                       # DTB write accesses
system.switch_cpus.itb.instAccesses                 0                       # ITB inst accesses
system.switch_cpus.itb.hits                         0                       # Total TLB (inst and data) hits
system.switch_cpus.itb.misses                       0                       # Total TLB (inst and data) misses
system.switch_cpus.itb.accesses                     0                       # Total TLB (inst and data) accesses
system.switch_cpus.itb.stage2_mmu.stage2_tlb.instHits            0                       # ITB inst hits
system.switch_cpus.itb.stage2_mmu.stage2_tlb.instMisses            0                       # ITB inst misses
system.switch_cpus.itb.stage2_mmu.stage2_tlb.readHits            0                       # DTB read hits
system.switch_cpus.itb.stage2_mmu.stage2_tlb.readMisses            0                       # DTB read misses
system.switch_cpus.itb.stage2_mmu.stage2_tlb.writeHits            0                       # DTB write hits
system.switch_cpus.itb.stage2_mmu.stage2_tlb.writeMisses            0                       # DTB write misses
system.switch_cpus.itb.stage2_mmu.stage2_tlb.inserts            0                       # Number of times an entry is inserted into the TLB
system.switch_cpus.itb.stage2_mmu.stage2_tlb.flushTlb            0                       # Number of times complete TLB was flushed
system.switch_cpus.itb.stage2_mmu.stage2_tlb.flushTlbMva            0                       # Number of times TLB was flushed by MVA
system.switch_cpus.itb.stage2_mmu.stage2_tlb.flushTlbMvaAsid            0                       # Number of times TLB was flushed by MVA & ASID
system.switch_cpus.itb.stage2_mmu.stage2_tlb.flushTlbAsid            0                       # Number of times TLB was flushed by ASID
system.switch_cpus.itb.stage2_mmu.stage2_tlb.flushedEntries            0                       # Number of entries that have been flushed from TLB
system.switch_cpus.itb.stage2_mmu.stage2_tlb.alignFaults            0                       # Number of TLB faults due to alignment restrictions
system.switch_cpus.itb.stage2_mmu.stage2_tlb.prefetchFaults            0                       # Number of TLB faults due to prefetch
system.switch_cpus.itb.stage2_mmu.stage2_tlb.domainFaults            0                       # Number of TLB faults due to domain restrictions
system.switch_cpus.itb.stage2_mmu.stage2_tlb.permsFaults            0                       # Number of TLB faults due to permissions restrictions
system.switch_cpus.itb.stage2_mmu.stage2_tlb.readAccesses            0                       # DTB read accesses
system.switch_cpus.itb.stage2_mmu.stage2_tlb.writeAccesses            0                       # DTB write accesses
system.switch_cpus.itb.stage2_mmu.stage2_tlb.instAccesses            0                       # ITB inst accesses
system.switch_cpus.itb.stage2_mmu.stage2_tlb.hits            0                       # Total TLB (inst and data) hits
system.switch_cpus.itb.stage2_mmu.stage2_tlb.misses            0                       # Total TLB (inst and data) misses
system.switch_cpus.itb.stage2_mmu.stage2_tlb.accesses            0                       # Total TLB (inst and data) accesses
system.switch_cpus.itb.stage2_mmu.stage2_tlb.walker.walks            0                       # Table walker walks requested
system.switch_cpus.itb.stage2_mmu.stage2_tlb.walker.requestOrigin_Requested::Data            0                       # Table walker requests started/completed, data/inst
system.switch_cpus.itb.stage2_mmu.stage2_tlb.walker.requestOrigin_Requested::Inst            0                       # Table walker requests started/completed, data/inst
system.switch_cpus.itb.stage2_mmu.stage2_tlb.walker.requestOrigin_Requested::total            0                       # Table walker requests started/completed, data/inst
system.switch_cpus.itb.stage2_mmu.stage2_tlb.walker.requestOrigin_Completed::Data            0                       # Table walker requests started/completed, data/inst
system.switch_cpus.itb.stage2_mmu.stage2_tlb.walker.requestOrigin_Completed::Inst            0                       # Table walker requests started/completed, data/inst
system.switch_cpus.itb.stage2_mmu.stage2_tlb.walker.requestOrigin_Completed::total            0                       # Table walker requests started/completed, data/inst
system.switch_cpus.itb.stage2_mmu.stage2_tlb.walker.requestOrigin::total            0                       # Table walker requests started/completed, data/inst
system.switch_cpus.itb.stage2_mmu.stage2_tlb.walker.power_state.pwrStateResidencyTicks::UNDEFINED 5975444417500                       # Cumulative time (in ticks) in various power states
system.switch_cpus.itb.walker.walks                 0                       # Table walker walks requested
system.switch_cpus.itb.walker.requestOrigin_Requested::Data            0                       # Table walker requests started/completed, data/inst
system.switch_cpus.itb.walker.requestOrigin_Requested::Inst            0                       # Table walker requests started/completed, data/inst
system.switch_cpus.itb.walker.requestOrigin_Requested::total            0                       # Table walker requests started/completed, data/inst
system.switch_cpus.itb.walker.requestOrigin_Completed::Data            0                       # Table walker requests started/completed, data/inst
system.switch_cpus.itb.walker.requestOrigin_Completed::Inst            0                       # Table walker requests started/completed, data/inst
system.switch_cpus.itb.walker.requestOrigin_Completed::total            0                       # Table walker requests started/completed, data/inst
system.switch_cpus.itb.walker.requestOrigin::total            0                       # Table walker requests started/completed, data/inst
system.switch_cpus.itb.walker.power_state.pwrStateResidencyTicks::UNDEFINED 5975444417500                       # Cumulative time (in ticks) in various power states
system.switch_cpus.lsq0.forwLoads            25840999                       # Number of loads that had data forwarded from stores
system.switch_cpus.lsq0.squashedLoads       184291343                       # Number of loads squashed
system.switch_cpus.lsq0.ignoredResponses       242892                       # Number of memory responses ignored because the instruction is squashed
system.switch_cpus.lsq0.memOrderViolation       112683                       # Number of memory ordering violations
system.switch_cpus.lsq0.squashedStores       43193514                       # Number of stores squashed
system.switch_cpus.lsq0.rescheduledLoads     13278233                       # Number of loads that were rescheduled
system.switch_cpus.lsq0.blockedByCache        1555027                       # Number of times an access to memory failed due to the cache being blocked
system.switch_cpus.power_state.pwrStateResidencyTicks::OFF 617604508000                       # Cumulative time (in ticks) in various power states
system.switch_cpus.rename.squashCycles       28202102                       # Number of cycles rename is squashing
system.switch_cpus.rename.idleCycles        422855034                       # Number of cycles rename is idle
system.switch_cpus.rename.blockCycles       154329328                       # Number of cycles rename is blocking
system.switch_cpus.rename.serializeStallCycles      5087698                       # count of cycles rename stalledfor serializing inst
system.switch_cpus.rename.runCycles         542199116                       # Number of cycles rename is running
system.switch_cpus.rename.unblockCycles      81742580                       # Number of cycles rename is unblocking
system.switch_cpus.rename.renamedInsts     3092377234                       # Number of instructions processed by rename
system.switch_cpus.rename.ROBFullEvents         72248                       # Number of times rename has blocked due to ROB full
system.switch_cpus.rename.IQFullEvents       43638936                       # Number of times rename has blocked due to IQ full
system.switch_cpus.rename.LQFullEvents       22501443                       # Number of times rename has blocked due to LQ full
system.switch_cpus.rename.SQFullEvents       11227350                       # Number of times rename has blocked due to SQ full
system.switch_cpus.rename.renamedOperands   3471500508                       # Number of destination operands rename has renamed
system.switch_cpus.rename.lookups          5013832939                       # Number of register rename lookups that rename has made
system.switch_cpus.rename.intLookups       3754016043                       # Number of integer rename lookups
system.switch_cpus.rename.vecLookups         96241283                       # Number of vector rename lookups
system.switch_cpus.rename.vecPredLookups        28599                       # Number of vector predicate rename lookups
system.switch_cpus.rename.committedMaps    2339490823                       # Number of HB maps that are committed
system.switch_cpus.rename.undoneMaps       1132009647                       # Number of HB maps that are undone due to squashing
system.switch_cpus.rename.serializing          195220                       # count of serializing insts renamed
system.switch_cpus.rename.tempSerializing           10                       # count of temporary serializing insts renamed
system.switch_cpus.rename.skidInsts         118164953                       # count of insts added to the skid buffer
system.switch_cpus.rob.reads               3909788138                       # The number of ROB reads
system.switch_cpus.rob.writes              5961867775                       # The number of ROB writes
system.switch_cpus.thread0.numInsts        2000000001                       # Number of Instructions committed
system.switch_cpus.thread0.numOps          2139986991                       # Number of Ops committed
system.switch_cpus.thread0.numMemRefs               0                       # Number of Memory References
system.tol2bus.trans_dist::ReadResp           7902943                       # Transaction distribution
system.tol2bus.trans_dist::WritebackDirty      2437097                       # Transaction distribution
system.tol2bus.trans_dist::WritebackClean      5998761                       # Transaction distribution
system.tol2bus.trans_dist::CleanEvict          929959                       # Transaction distribution
system.tol2bus.trans_dist::HardPFReq            67699                       # Transaction distribution
system.tol2bus.trans_dist::UpgradeReq         1008567                       # Transaction distribution
system.tol2bus.trans_dist::UpgradeResp        1008567                       # Transaction distribution
system.tol2bus.trans_dist::ReadExReq          1364079                       # Transaction distribution
system.tol2bus.trans_dist::ReadExResp         1364079                       # Transaction distribution
system.tol2bus.trans_dist::ReadCleanReq       7902113                       # Transaction distribution
system.tol2bus.trans_dist::ReadSharedReq          830                       # Transaction distribution
system.tol2bus.trans_dist::InvalidateReq        64367                       # Transaction distribution
system.tol2bus.trans_dist::InvalidateResp        64367                       # Transaction distribution
system.tol2bus.pkt_count_system.cpu.icache.mem_side_port::system.l2.cpu_side_port       845039                       # Packet count per connected requestor and responder (bytes)
system.tol2bus.pkt_count_system.cpu.dcache.mem_side_port::system.l2.cpu_side_port     29152545                       # Packet count per connected requestor and responder (bytes)
system.tol2bus.pkt_count::total              29997584                       # Packet count per connected requestor and responder (bytes)
system.tol2bus.pkt_size_system.cpu.icache.mem_side_port::system.l2.cpu_side_port     25470528                       # Cumulative packet size per connected requestor and responder (bytes)
system.tol2bus.pkt_size_system.cpu.dcache.mem_side_port::system.l2.cpu_side_port   1107513664                       # Cumulative packet size per connected requestor and responder (bytes)
system.tol2bus.pkt_size::total             1132984192                       # Cumulative packet size per connected requestor and responder (bytes)
system.tol2bus.snoops                          115844                       # Total snoops (count)
system.tol2bus.snoopTraffic                       128                       # Total snoop traffic (bytes)
system.tol2bus.snoop_fanout::samples         10455798                       # Request fanout histogram
system.tol2bus.snoop_fanout::mean            0.008310                       # Request fanout histogram
system.tol2bus.snoop_fanout::stdev           0.090780                       # Request fanout histogram
system.tol2bus.snoop_fanout::underflows             0      0.00%      0.00% # Request fanout histogram
system.tol2bus.snoop_fanout::0               10368910     99.17%     99.17% # Request fanout histogram
system.tol2bus.snoop_fanout::1                  86888      0.83%    100.00% # Request fanout histogram
system.tol2bus.snoop_fanout::2                      0      0.00%    100.00% # Request fanout histogram
system.tol2bus.snoop_fanout::overflows              0      0.00%    100.00% # Request fanout histogram
system.tol2bus.snoop_fanout::min_value              0                       # Request fanout histogram
system.tol2bus.snoop_fanout::max_value              1                       # Request fanout histogram
system.tol2bus.snoop_fanout::total           10455798                       # Request fanout histogram
system.tol2bus.power_state.pwrStateResidencyTicks::UNDEFINED 5975444417500                       # Cumulative time (in ticks) in various power states
system.tol2bus.reqLayer0.occupancy        21716183138                       # Layer occupancy (ticks)
system.tol2bus.reqLayer0.utilization              3.5                       # Layer utilization (%)
system.tol2bus.respLayer0.occupancy         428215095                       # Layer occupancy (ticks)
system.tol2bus.respLayer0.utilization             0.1                       # Layer utilization (%)
system.tol2bus.respLayer1.occupancy       14014223981                       # Layer occupancy (ticks)
system.tol2bus.respLayer1.utilization             2.3                       # Layer utilization (%)
system.voltage_domain.voltage                       1                       # Voltage in Volts

---------- End Simulation Statistics   ----------
