
*** ChampSim Multicore Out-of-Order Simulator ***

Warmup Instructions: 50000000
Simulation Instructions: 50000000
Number of CPUs: 2
LLC sets: 4096
LLC ways: 16
Off-chip DRAM Size: 4096 MB Channels: 1 Width: 64-bit Data Rate: 6400 MT/s
CPU 0 runs ../Given/traces//600.perlbench_s-570B.champsimtrace.xz
.xz
CPU 1 runs ../Given/traces//605.mcf_s-1554B.champsimtrace.xz
.xz
CPU 0 Bimodal branch predictor
BTB has LRU replacement policy
ITLB has LRU replacement policy
DTLB has LRU replacement policy
STLB has LRU replacement policy
L1I has LRU replacement policy
L1D has LRU replacement policy
L2C has LRU replacement policy
LLC has LRU replacement policy
CPU 1 Bimodal branch predictor
BTB has LRU replacement policy
ITLB has LRU replacement policy
DTLB has LRU replacement policy
STLB has LRU replacement policy
L1I has LRU replacement policy
L1D has LRU replacement policy
L2C has LRU replacement policy
LLC has LRU replacement policy
Heartbeat CPU 0 instructions: 10000003 cycles: 2894124 heartbeat IPC: 3.45528 cumulative IPC: 3.45528 (Simulation time: 0 hr 0 min 26 sec) 
Heartbeat CPU 1 instructions: 10000001 cycles: 3528245 heartbeat IPC: 2.83427 cumulative IPC: 2.83427 (Simulation time: 0 hr 0 min 32 sec) 
Heartbeat CPU 0 instructions: 20000003 cycles: 5752942 heartbeat IPC: 3.49795 cumulative IPC: 3.47648 (Simulation time: 0 hr 0 min 52 sec) 
Heartbeat CPU 1 instructions: 20000000 cycles: 7074807 heartbeat IPC: 2.81963 cumulative IPC: 2.82693 (Simulation time: 0 hr 1 min 4 sec) 
Heartbeat CPU 0 instructions: 30000003 cycles: 8648483 heartbeat IPC: 3.45359 cumulative IPC: 3.46882 (Simulation time: 0 hr 1 min 18 sec) 
Heartbeat CPU 1 instructions: 30000002 cycles: 10632102 heartbeat IPC: 2.81113 cumulative IPC: 2.82164 (Simulation time: 0 hr 1 min 36 sec) 
Heartbeat CPU 0 instructions: 40000002 cycles: 11519858 heartbeat IPC: 3.48265 cumulative IPC: 3.47227 (Simulation time: 0 hr 1 min 44 sec) 
Heartbeat CPU 1 instructions: 40000001 cycles: 14178340 heartbeat IPC: 2.81989 cumulative IPC: 2.8212 (Simulation time: 0 hr 2 min 8 sec) 
Heartbeat CPU 0 instructions: 50000002 cycles: 14389529 heartbeat IPC: 3.48472 cumulative IPC: 3.47475 (Simulation time: 0 hr 2 min 10 sec) 
Heartbeat CPU 1 instructions: 50000001 cycles: 17726265 heartbeat IPC: 2.81855 cumulative IPC: 2.82067 (Simulation time: 0 hr 2 min 34 sec) 

Warmup complete CPU 0 instructions: 59916412 cycles: 17726265 (Simulation time: 0 hr 2 min 34 sec) 
Warmup complete CPU 1 instructions: 50000001 cycles: 17726265 (Simulation time: 0 hr 2 min 34 sec) 

Heartbeat CPU 0 instructions: 60000000 cycles: 17849354 heartbeat IPC: 2.89032 cumulative IPC: 0.679086 (Simulation time: 0 hr 2 min 34 sec) 
Heartbeat CPU 0 instructions: 70000000 cycles: 42435641 heartbeat IPC: 0.406731 cumulative IPC: 0.408088 (Simulation time: 0 hr 3 min 14 sec) 
Heartbeat CPU 1 instructions: 60000000 cycles: 48747729 heartbeat IPC: 0.322357 cumulative IPC: 0.322357 (Simulation time: 0 hr 3 min 22 sec) 
Heartbeat CPU 0 instructions: 80000002 cycles: 68970666 heartbeat IPC: 0.37686 cumulative IPC: 0.391918 (Simulation time: 0 hr 3 min 54 sec) 
Heartbeat CPU 1 instructions: 70000000 cycles: 80251748 heartbeat IPC: 0.31742 cumulative IPC: 0.31987 (Simulation time: 0 hr 4 min 10 sec) 
Heartbeat CPU 0 instructions: 90000003 cycles: 101464707 heartbeat IPC: 0.307749 cumulative IPC: 0.359257 (Simulation time: 0 hr 4 min 39 sec) 
Heartbeat CPU 1 instructions: 80000000 cycles: 112096067 heartbeat IPC: 0.314028 cumulative IPC: 0.317898 (Simulation time: 0 hr 5 min 0 sec) 
Heartbeat CPU 0 instructions: 100000002 cycles: 117926038 heartbeat IPC: 0.607484 cumulative IPC: 0.400037 (Simulation time: 0 hr 5 min 11 sec) 
Finished CPU 0 instructions: 50000001 cycles: 116626517 cumulative IPC: 0.428719 (Simulation time: 0 hr 5 min 42 sec) 
Heartbeat CPU 0 instructions: 110000000 cycles: 134479508 heartbeat IPC: 0.604103 cumulative IPC: 0.42897 (Simulation time: 0 hr 5 min 43 sec) 
Heartbeat CPU 1 instructions: 90000003 cycles: 142946771 heartbeat IPC: 0.324142 cumulative IPC: 0.319437 (Simulation time: 0 hr 5 min 59 sec) 
Heartbeat CPU 0 instructions: 120000003 cycles: 151720385 heartbeat IPC: 0.580017 cumulative IPC: 0.448405 (Simulation time: 0 hr 6 min 15 sec) 
Heartbeat CPU 0 instructions: 130000000 cycles: 168771051 heartbeat IPC: 0.586487 cumulative IPC: 0.463992 (Simulation time: 0 hr 6 min 47 sec) 
Heartbeat CPU 1 instructions: 100000000 cycles: 173638425 heartbeat IPC: 0.325821 cumulative IPC: 0.320693 (Simulation time: 0 hr 6 min 54 sec) 
Finished CPU 1 instructions: 50000003 cycles: 155912161 cumulative IPC: 0.320693 (Simulation time: 0 hr 6 min 54 sec) 

ChampSim completed all CPUs

Total Simulation Statistics (not including warmup)

CPU 0 cumulative IPC: 0.458037 instructions: 71413488 cycles: 155912161
ITLB TOTAL     ACCESS:   11043782  HIT:   11018892  MISS:      24890  HIT %:    99.7746  MISS %:   0.225376   MPKI: 0.348534
ITLB LOAD      ACCESS:          0  HIT:          0  MISS:          0  HIT %:       -nan  MISS %:       -nan   MPKI: 0
ITLB RFO       ACCESS:          0  HIT:          0  MISS:          0  HIT %:       -nan  MISS %:       -nan   MPKI: 0
ITLB PREFETCH  ACCESS:          0  HIT:          0  MISS:          0  HIT %:       -nan  MISS %:       -nan   MPKI: 0
ITLB WRITEBACK ACCESS:          0  HIT:          0  MISS:          0  HIT %:       -nan  MISS %:       -nan   MPKI: 0
DTLB TOTAL     ACCESS:   19694079  HIT:   19526826  MISS:     167253  HIT %:    99.1507  MISS %:   0.849255   MPKI: 2.34204
DTLB LOAD      ACCESS:          0  HIT:          0  MISS:          0  HIT %:       -nan  MISS %:       -nan   MPKI: 0
DTLB RFO       ACCESS:          0  HIT:          0  MISS:          0  HIT %:       -nan  MISS %:       -nan   MPKI: 0
DTLB PREFETCH  ACCESS:          0  HIT:          0  MISS:          0  HIT %:       -nan  MISS %:       -nan   MPKI: 0
DTLB WRITEBACK ACCESS:          0  HIT:          0  MISS:          0  HIT %:       -nan  MISS %:       -nan   MPKI: 0
STLB TOTAL     ACCESS:     192143  HIT:     183413  MISS:       8730  HIT %:    95.4565  MISS %:    4.54349   MPKI: 0.122246
STLB LOAD      ACCESS:          0  HIT:          0  MISS:          0  HIT %:       -nan  MISS %:       -nan   MPKI: 0
STLB RFO       ACCESS:          0  HIT:          0  MISS:          0  HIT %:       -nan  MISS %:       -nan   MPKI: 0
STLB PREFETCH  ACCESS:          0  HIT:          0  MISS:          0  HIT %:       -nan  MISS %:       -nan   MPKI: 0
STLB WRITEBACK ACCESS:          0  HIT:          0  MISS:          0  HIT %:       -nan  MISS %:       -nan   MPKI: 0
L1D TOTAL     ACCESS:   27267669  HIT:   27082685  MISS:     184984  HIT %:    99.3216  MISS %:     0.6784   MPKI: 2.59032
L1D LOAD      ACCESS:   13124214  HIT:   12957749  MISS:     166465  HIT %:    98.7316  MISS %:    1.26838   MPKI: 2.331
L1D RFO       ACCESS:   14143455  HIT:   14124936  MISS:      18519  HIT %:    99.8691  MISS %:   0.130937   MPKI: 0.259321
L1D PREFETCH  ACCESS:          0  HIT:          0  MISS:          0  HIT %:       -nan  MISS %:       -nan   MPKI: 0
L1D WRITEBACK ACCESS:          0  HIT:          0  MISS:          0  HIT %:       -nan  MISS %:       -nan   MPKI: 0
L1I TOTAL     ACCESS:   12403631  HIT:   12123538  MISS:     280093  HIT %:    97.7418  MISS %:    2.25815   MPKI: 3.92213
L1I LOAD      ACCESS:   12403631  HIT:   12123538  MISS:     280093  HIT %:    97.7418  MISS %:    2.25815   MPKI: 3.92213
L1I RFO       ACCESS:          0  HIT:          0  MISS:          0  HIT %:       -nan  MISS %:       -nan   MPKI: 0
L1I PREFETCH  ACCESS:          0  HIT:          0  MISS:          0  HIT %:       -nan  MISS %:       -nan   MPKI: 0
L1I WRITEBACK ACCESS:          0  HIT:          0  MISS:          0  HIT %:       -nan  MISS %:       -nan   MPKI: 0
L2C TOTAL     ACCESS:     527194  HIT:     423915  MISS:     103279  HIT %:    80.4097  MISS %:    19.5903   MPKI: 1.44621
L2C LOAD      ACCESS:     446558  HIT:     353029  MISS:      93529  HIT %:    79.0556  MISS %:    20.9444   MPKI: 1.30968
L2C RFO       ACCESS:      18519  HIT:      13027  MISS:       5492  HIT %:     70.344  MISS %:     29.656   MPKI: 0.0769042
L2C PREFETCH  ACCESS:          0  HIT:          0  MISS:          0  HIT %:       -nan  MISS %:       -nan   MPKI: 0
L2C WRITEBACK ACCESS:      51799  HIT:      51579  MISS:        220  HIT %:    99.5753  MISS %:   0.424719   MPKI: 0.00308065
PSCL5 TOTAL     ACCESS:       8730  HIT:       8730  MISS:          0  HIT %:        100  MISS %:          0   MPKI: 0
PSCL5 LOAD      ACCESS:          0  HIT:          0  MISS:          0  HIT %:       -nan  MISS %:       -nan   MPKI: 0
PSCL5 RFO       ACCESS:          0  HIT:          0  MISS:          0  HIT %:       -nan  MISS %:       -nan   MPKI: 0
PSCL5 PREFETCH  ACCESS:          0  HIT:          0  MISS:          0  HIT %:       -nan  MISS %:       -nan   MPKI: 0
PSCL5 WRITEBACK ACCESS:          0  HIT:          0  MISS:          0  HIT %:       -nan  MISS %:       -nan   MPKI: 0
PSCL4 TOTAL     ACCESS:       8730  HIT:       8730  MISS:          0  HIT %:        100  MISS %:          0   MPKI: 0
PSCL4 LOAD      ACCESS:          0  HIT:          0  MISS:          0  HIT %:       -nan  MISS %:       -nan   MPKI: 0
PSCL4 RFO       ACCESS:          0  HIT:          0  MISS:          0  HIT %:       -nan  MISS %:       -nan   MPKI: 0
PSCL4 PREFETCH  ACCESS:          0  HIT:          0  MISS:          0  HIT %:       -nan  MISS %:       -nan   MPKI: 0
PSCL4 WRITEBACK ACCESS:          0  HIT:          0  MISS:          0  HIT %:       -nan  MISS %:       -nan   MPKI: 0
PSCL3 TOTAL     ACCESS:       8730  HIT:       8730  MISS:          0  HIT %:        100  MISS %:          0   MPKI: 0
PSCL3 LOAD      ACCESS:          0  HIT:          0  MISS:          0  HIT %:       -nan  MISS %:       -nan   MPKI: 0
PSCL3 RFO       ACCESS:          0  HIT:          0  MISS:          0  HIT %:       -nan  MISS %:       -nan   MPKI: 0
PSCL3 PREFETCH  ACCESS:          0  HIT:          0  MISS:          0  HIT %:       -nan  MISS %:       -nan   MPKI: 0
PSCL3 WRITEBACK ACCESS:          0  HIT:          0  MISS:          0  HIT %:       -nan  MISS %:       -nan   MPKI: 0
PSCL2 TOTAL     ACCESS:       8730  HIT:       7088  MISS:       1642  HIT %:    81.1913  MISS %:    18.8087   MPKI: 0.0229929
PSCL2 LOAD      ACCESS:          0  HIT:          0  MISS:          0  HIT %:       -nan  MISS %:       -nan   MPKI: 0
PSCL2 RFO       ACCESS:          0  HIT:          0  MISS:          0  HIT %:       -nan  MISS %:       -nan   MPKI: 0
PSCL2 PREFETCH  ACCESS:          0  HIT:          0  MISS:          0  HIT %:       -nan  MISS %:       -nan   MPKI: 0
PSCL2 WRITEBACK ACCESS:          0  HIT:          0  MISS:          0  HIT %:       -nan  MISS %:       -nan   MPKI: 0
LLC TOTAL     ACCESS:     122280  HIT:      16924  MISS:     105356  HIT %:    13.8404  MISS %:    86.1596   MPKI: 1.4753
LLC LOAD      ACCESS:      93528  HIT:       5594  MISS:      87934  HIT %:     5.9811  MISS %:    94.0189   MPKI: 1.23134
LLC RFO       ACCESS:       5492  HIT:        720  MISS:       4772  HIT %:      13.11  MISS %:      86.89   MPKI: 0.0668221
LLC PREFETCH  ACCESS:          0  HIT:          0  MISS:          0  HIT %:       -nan  MISS %:       -nan   MPKI: 0
LLC WRITEBACK ACCESS:      19222  HIT:      10199  MISS:       9023  HIT %:     53.059  MISS %:     46.941   MPKI: 0.126349

RAW hits: 1025200
Loads Generated: 17620628
Loads sent to L1D: 16595429
Stores Generated: 14337354
Stores sent to L1D: 14337355

CPU 1 cumulative IPC: 0.320693 instructions: 50000003 cycles: 155912161
ITLB TOTAL     ACCESS:   10602912  HIT:   10602912  MISS:          0  HIT %:        100  MISS %:          0   MPKI: 0
ITLB LOAD      ACCESS:          0  HIT:          0  MISS:          0  HIT %:       -nan  MISS %:       -nan   MPKI: 0
ITLB RFO       ACCESS:          0  HIT:          0  MISS:          0  HIT %:       -nan  MISS %:       -nan   MPKI: 0
ITLB PREFETCH  ACCESS:          0  HIT:          0  MISS:          0  HIT %:       -nan  MISS %:       -nan   MPKI: 0
ITLB WRITEBACK ACCESS:          0  HIT:          0  MISS:          0  HIT %:       -nan  MISS %:       -nan   MPKI: 0
DTLB TOTAL     ACCESS:   15618492  HIT:   15423048  MISS:     195444  HIT %:    98.7486  MISS %:    1.25136   MPKI: 3.90888
DTLB LOAD      ACCESS:          0  HIT:          0  MISS:          0  HIT %:       -nan  MISS %:       -nan   MPKI: 0
DTLB RFO       ACCESS:          0  HIT:          0  MISS:          0  HIT %:       -nan  MISS %:       -nan   MPKI: 0
DTLB PREFETCH  ACCESS:          0  HIT:          0  MISS:          0  HIT %:       -nan  MISS %:       -nan   MPKI: 0
DTLB WRITEBACK ACCESS:          0  HIT:          0  MISS:          0  HIT %:       -nan  MISS %:       -nan   MPKI: 0
STLB TOTAL     ACCESS:     195444  HIT:     190966  MISS:       4478  HIT %:    97.7088  MISS %:    2.29119   MPKI: 0.08956
STLB LOAD      ACCESS:          0  HIT:          0  MISS:          0  HIT %:       -nan  MISS %:       -nan   MPKI: 0
STLB RFO       ACCESS:          0  HIT:          0  MISS:          0  HIT %:       -nan  MISS %:       -nan   MPKI: 0
STLB PREFETCH  ACCESS:          0  HIT:          0  MISS:          0  HIT %:       -nan  MISS %:       -nan   MPKI: 0
STLB WRITEBACK ACCESS:          0  HIT:          0  MISS:          0  HIT %:       -nan  MISS %:       -nan   MPKI: 0
L1D TOTAL     ACCESS:   18176874  HIT:   10546403  MISS:    7630471  HIT %:     58.021  MISS %:     41.979   MPKI: 152.609
L1D LOAD      ACCESS:   15373985  HIT:    7897719  MISS:    7476266  HIT %:    51.3707  MISS %:    48.6293   MPKI: 149.525
L1D RFO       ACCESS:    2802889  HIT:    2648684  MISS:     154205  HIT %:    94.4984  MISS %:    5.50164   MPKI: 3.0841
L1D PREFETCH  ACCESS:          0  HIT:          0  MISS:          0  HIT %:       -nan  MISS %:       -nan   MPKI: 0
L1D WRITEBACK ACCESS:          0  HIT:          0  MISS:          0  HIT %:       -nan  MISS %:       -nan   MPKI: 0
L1I TOTAL     ACCESS:   12839685  HIT:   12839685  MISS:          0  HIT %:        100  MISS %:          0   MPKI: 0
L1I LOAD      ACCESS:   12839685  HIT:   12839685  MISS:          0  HIT %:        100  MISS %:          0   MPKI: 0
L1I RFO       ACCESS:          0  HIT:          0  MISS:          0  HIT %:       -nan  MISS %:       -nan   MPKI: 0
L1I PREFETCH  ACCESS:          0  HIT:          0  MISS:          0  HIT %:       -nan  MISS %:       -nan   MPKI: 0
L1I WRITEBACK ACCESS:          0  HIT:          0  MISS:          0  HIT %:       -nan  MISS %:       -nan   MPKI: 0
L2C TOTAL     ACCESS:    7826851  HIT:     195785  MISS:    7631066  HIT %:    2.50145  MISS %:    97.4985   MPKI: 152.621
L2C LOAD      ACCESS:    7476266  HIT:        643  MISS:    7475623  HIT %: 0.00860055  MISS %:    99.9914   MPKI: 149.512
L2C RFO       ACCESS:     154205  HIT:        101  MISS:     154104  HIT %:  0.0654972  MISS %:    99.9345   MPKI: 3.08208
L2C PREFETCH  ACCESS:          0  HIT:          0  MISS:          0  HIT %:       -nan  MISS %:       -nan   MPKI: 0
L2C WRITEBACK ACCESS:     191898  HIT:     191650  MISS:        248  HIT %:    99.8708  MISS %:   0.129235   MPKI: 0.00496
PSCL5 TOTAL     ACCESS:       4478  HIT:       4478  MISS:          0  HIT %:        100  MISS %:          0   MPKI: 0
PSCL5 LOAD      ACCESS:          0  HIT:          0  MISS:          0  HIT %:       -nan  MISS %:       -nan   MPKI: 0
PSCL5 RFO       ACCESS:          0  HIT:          0  MISS:          0  HIT %:       -nan  MISS %:       -nan   MPKI: 0
PSCL5 PREFETCH  ACCESS:          0  HIT:          0  MISS:          0  HIT %:       -nan  MISS %:       -nan   MPKI: 0
PSCL5 WRITEBACK ACCESS:          0  HIT:          0  MISS:          0  HIT %:       -nan  MISS %:       -nan   MPKI: 0
PSCL4 TOTAL     ACCESS:       4478  HIT:       4478  MISS:          0  HIT %:        100  MISS %:          0   MPKI: 0
PSCL4 LOAD      ACCESS:          0  HIT:          0  MISS:          0  HIT %:       -nan  MISS %:       -nan   MPKI: 0
PSCL4 RFO       ACCESS:          0  HIT:          0  MISS:          0  HIT %:       -nan  MISS %:       -nan   MPKI: 0
PSCL4 PREFETCH  ACCESS:          0  HIT:          0  MISS:          0  HIT %:       -nan  MISS %:       -nan   MPKI: 0
PSCL4 WRITEBACK ACCESS:          0  HIT:          0  MISS:          0  HIT %:       -nan  MISS %:       -nan   MPKI: 0
PSCL3 TOTAL     ACCESS:       4478  HIT:       4478  MISS:          0  HIT %:        100  MISS %:          0   MPKI: 0
PSCL3 LOAD      ACCESS:          0  HIT:          0  MISS:          0  HIT %:       -nan  MISS %:       -nan   MPKI: 0
PSCL3 RFO       ACCESS:          0  HIT:          0  MISS:          0  HIT %:       -nan  MISS %:       -nan   MPKI: 0
PSCL3 PREFETCH  ACCESS:          0  HIT:          0  MISS:          0  HIT %:       -nan  MISS %:       -nan   MPKI: 0
PSCL3 WRITEBACK ACCESS:          0  HIT:          0  MISS:          0  HIT %:       -nan  MISS %:       -nan   MPKI: 0
PSCL2 TOTAL     ACCESS:       4478  HIT:       4465  MISS:         13  HIT %:    99.7097  MISS %:   0.290308   MPKI: 0.00026
PSCL2 LOAD      ACCESS:          0  HIT:          0  MISS:          0  HIT %:       -nan  MISS %:       -nan   MPKI: 0
PSCL2 RFO       ACCESS:          0  HIT:          0  MISS:          0  HIT %:       -nan  MISS %:       -nan   MPKI: 0
PSCL2 PREFETCH  ACCESS:          0  HIT:          0  MISS:          0  HIT %:       -nan  MISS %:       -nan   MPKI: 0
PSCL2 WRITEBACK ACCESS:          0  HIT:          0  MISS:          0  HIT %:       -nan  MISS %:       -nan   MPKI: 0
LLC TOTAL     ACCESS:    7822834  HIT:    7577471  MISS:     245363  HIT %:    96.8635  MISS %:     3.1365   MPKI: 4.90726
LLC LOAD      ACCESS:    7475624  HIT:    7384121  MISS:      91503  HIT %:     98.776  MISS %:    1.22402   MPKI: 1.83006
LLC RFO       ACCESS:     154104  HIT:        922  MISS:     153182  HIT %:   0.598297  MISS %:    99.4017   MPKI: 3.06364
LLC PREFETCH  ACCESS:          0  HIT:          0  MISS:          0  HIT %:       -nan  MISS %:       -nan   MPKI: 0
LLC WRITEBACK ACCESS:     192015  HIT:     192008  MISS:          7  HIT %:    99.9964  MISS %: 0.00364555   MPKI: 0.00014

RAW hits: 2012585
Loads Generated: 22575664
Loads sent to L1D: 20563081
Stores Generated: 3711165
Stores sent to L1D: 3711168

Region of Interest Statistics

CPU 0 cumulative IPC: 0.428719 instructions: 50000001 cycles: 116626517
ITLB TOTAL     ACCESS:    7824900  HIT:    7801814  MISS:      23086  HIT %:     99.705  MISS %:   0.295033   MPKI: 0.46172
ITLB LOAD TRANSLATION ACCESS:    7824900  HIT:    7801814  MISS:      23086  HIT %:     99.705  MISS %:   0.295033   MPKI: 0.46172
ITLB PREFETCH  REQUESTED:          0  ISSUED:          0  USEFUL:          0  USELESS:          0
ITLB USEFUL LOAD PREFETCHES:          0 PREFETCH ISSUED TO LOWER LEVEL:          0  ACCURACY: -nan
ITLB TIMELY PREFETCHES:          0 LATE PREFETCHES: 0 DROPPED PREFETCHES: 0
ITLB PREFETCHES SAME FILL-ORIGIN LEVEL: 0 DIFFERENT FILL-ORIGIN LEVEL: 0
ITLB AVERAGE MISS LATENCY: 11.6668 cycles
ITLB RQ	ACCESS:   12468671	FORWARD:          0	MERGED:    1416006	TO_CACHE:   11052665

DTLB TOTAL     ACCESS:   14089724  HIT:   13943591  MISS:     146133  HIT %:    98.9628  MISS %:    1.03716   MPKI: 2.92266
DTLB LOAD TRANSLATION ACCESS:   14089724  HIT:   13943591  MISS:     146133  HIT %:    98.9628  MISS %:    1.03716   MPKI: 2.92266
DTLB PREFETCH  REQUESTED:          0  ISSUED:          0  USEFUL:          0  USELESS:          0
DTLB USEFUL LOAD PREFETCHES:          0 PREFETCH ISSUED TO LOWER LEVEL:          0  ACCURACY: -nan
DTLB TIMELY PREFETCHES:          0 LATE PREFETCHES: 0 DROPPED PREFETCHES: 0
DTLB PREFETCHES SAME FILL-ORIGIN LEVEL: 0 DIFFERENT FILL-ORIGIN LEVEL: 0
DTLB AVERAGE MISS LATENCY: 19.6672 cycles
DTLB RQ	ACCESS:   27316178	FORWARD:          0	MERGED:    7617196	TO_CACHE:   19698982

STLB TOTAL     ACCESS:     169219  HIT:     161988  MISS:       7231  HIT %:    95.7268  MISS %:    4.27316   MPKI: 0.14462
STLB LOAD TRANSLATION ACCESS:     169219  HIT:     161988  MISS:       7231  HIT %:    95.7268  MISS %:    4.27316   MPKI: 0.14462
STLB PREFETCH  REQUESTED:          0  ISSUED:          0  USEFUL:          0  USELESS:          0
STLB USEFUL LOAD PREFETCHES:          0 PREFETCH ISSUED TO LOWER LEVEL:          0  ACCURACY: -nan
STLB TIMELY PREFETCHES:          0 LATE PREFETCHES: 0 DROPPED PREFETCHES: 0
STLB PREFETCHES SAME FILL-ORIGIN LEVEL: 0 DIFFERENT FILL-ORIGIN LEVEL: 0
STLB AVERAGE MISS LATENCY: 194.689 cycles
STLB RQ	ACCESS:     192143	FORWARD:          0	MERGED:          0	TO_CACHE:     192143

STLB Hit, L1D data hit: 0
STLB Hit, L2C data hit: 0
STLB Hit, LLC data hit: 0
STLB Hit, LLC data miss: 0
STLB STLB hints to L2: 0
L1D TOTAL     ACCESS:   19036987  HIT:   18871838  MISS:     165149  HIT %:    99.1325  MISS %:   0.867516   MPKI: 3.30298
L1D LOAD      ACCESS:    9351992  HIT:    9204564  MISS:     147428  HIT %:    98.4236  MISS %:    1.57643   MPKI: 2.94856
L1D RFO       ACCESS:    9684995  HIT:    9667274  MISS:      17721  HIT %:     99.817  MISS %:   0.182974   MPKI: 0.35442
L1D PREFETCH  REQUESTED:          0  ISSUED:          0  USEFUL:          0  USELESS:          0
L1D USEFUL LOAD PREFETCHES:          0 PREFETCH ISSUED TO LOWER LEVEL:          0  ACCURACY: -nan
L1D TIMELY PREFETCHES:          0 LATE PREFETCHES: 0 DROPPED PREFETCHES: 0
L1D PREFETCHES SAME FILL-ORIGIN LEVEL: 0 DIFFERENT FILL-ORIGIN LEVEL: 0
L1D AVERAGE MISS LATENCY: 115.449 cycles
L1D RQ	ACCESS:   16595429	FORWARD:          0	MERGED:    3060221	TO_CACHE:   13138440
L1D WQ	ACCESS:   14337355	FORWARD:     396768	MERGED:     159617	TO_CACHE:   14177738

L1D UNIQUE REGIONS ACCESSED: 0
L1D REGIONS CONFLICTS: 0
L1D Cross Page Prefetch Requests: 0
L1D Same Page Prefetch Requests: 0
L1D ROI Sum of L1D PQ occupancy: 0
L1D PREFETCHES PUSHED FROM L2C: 0
L1I TOTAL     ACCESS:    8762433  HIT:    8502869  MISS:     259564  HIT %:    97.0378  MISS %:    2.96224   MPKI: 5.19128
L1I LOAD      ACCESS:    8762433  HIT:    8502869  MISS:     259564  HIT %:    97.0378  MISS %:    2.96224   MPKI: 5.19128
L1I PREFETCH  REQUESTED:          0  ISSUED:          0  USEFUL:          0  USELESS:          0
L1I USEFUL LOAD PREFETCHES:          0 PREFETCH ISSUED TO LOWER LEVEL:          0  ACCURACY: -nan
L1I TIMELY PREFETCHES:          0 LATE PREFETCHES: 0 DROPPED PREFETCHES: 0
L1I PREFETCHES SAME FILL-ORIGIN LEVEL: 0 DIFFERENT FILL-ORIGIN LEVEL: 0
L1I AVERAGE MISS LATENCY: 23.0087 cycles
L1I RQ	ACCESS:   19823565	FORWARD:          0	MERGED:    7354894	TO_CACHE:   12468671

BTB TOTAL     ACCESS:    6584430  HIT:    6183199  MISS:     401231  HIT %:    93.9064  MISS %:    6.09363   MPKI: 8.02462
BTB BRANCH_DIRECT_JUMP	ACCESS:    1052315  HIT:    1048923  MISS:       3392
BTB BRANCH_INDIRECT	ACCESS:     321030  HIT:      98042  MISS:     222988
BTB BRANCH_CONDITIONAL	ACCESS:    4248602  HIT:    4239122  MISS:       9480
BTB BRANCH_DIRECT_CALL	ACCESS:     375568  HIT:     373111  MISS:       2457
BTB BRANCH_INDIRECT_CALL	ACCESS:     105674  HIT:      11723  MISS:      93951
BTB BRANCH_RETURN	ACCESS:     481241  HIT:     412278  MISS:      68963
BTB BRANCH_OTHER ACCESS:          0  HIT:          0  MISS:          0

L2C TOTAL     ACCESS:     481987  HIT:     397551  MISS:      84436  HIT %:    82.4817  MISS %:    17.5183   MPKI: 1.68872
L2C LOAD      ACCESS:     406992  HIT:     331132  MISS:      75860  HIT %:    81.3608  MISS %:    18.6392   MPKI: 1.5172
L2C DATA LOAD MPKI: 1.31378
L2C INSTRUCTION LOAD MPKI: 0.20342
L2C RFO       ACCESS:      17721  HIT:      12753  MISS:       4968  HIT %:    71.9655  MISS %:    28.0345   MPKI: 0.09936
L2C WRITEBACK ACCESS:      48636  HIT:      48472  MISS:        164  HIT %:    99.6628  MISS %:   0.337199   MPKI: 0.00328
L2C LOAD TRANSLATION ACCESS:       8638  HIT:       5194  MISS:       3444  HIT %:    60.1297  MISS %:    39.8703   MPKI: 0.06888
L2C PREFETCH  REQUESTED:          0  ISSUED:          0  USEFUL:          0  USELESS:          0
L2C USEFUL LOAD PREFETCHES:          0 PREFETCH ISSUED TO LOWER LEVEL:          0  ACCURACY: -nan
L2C TIMELY PREFETCHES:          0 LATE PREFETCHES: 0 DROPPED PREFETCHES: 0
L2C PREFETCHES SAME FILL-ORIGIN LEVEL: 0 DIFFERENT FILL-ORIGIN LEVEL: 0
L2C AVERAGE MISS LATENCY: 225.758 cycles
L2C RQ	ACCESS:     475396	FORWARD:          0	MERGED:          0	TO_CACHE:     475396
L2C WQ	ACCESS:      51799	FORWARD:          0	MERGED:          0	TO_CACHE:      51799

L2C Instructions Evicting Data 9523
L2C Translations Evicting Data 3375
L2C Data Evicting Data 73680
L2C Instructions Evicting Instructions 1304
L2C Translations Evicting Instructions 439
L2C Data Evicting Instructions 9105
L2C Instructions Evicting Translations 481
L2C Translations Evicting Translations 113
L2C Data Evicting Translations 3241
L2C Dense regions hint from L2: 0
PSCL5 TOTAL     ACCESS:       7231  HIT:       7231  MISS:          0  HIT %:        100  MISS %:          0   MPKI: 0
PSCL5 LOAD TRANSLATION ACCESS:       7231  HIT:       7231  MISS:          0  HIT %:        100  MISS %:          0   MPKI: 0
PSCL5 PREFETCH  REQUESTED:          0  ISSUED:          0  USEFUL:          0  USELESS:          0
PSCL5 USEFUL LOAD PREFETCHES:          0 PREFETCH ISSUED TO LOWER LEVEL:          0  ACCURACY: -nan
PSCL5 TIMELY PREFETCHES:          0 LATE PREFETCHES: 0 DROPPED PREFETCHES: 0
PSCL5 PREFETCHES SAME FILL-ORIGIN LEVEL: 0 DIFFERENT FILL-ORIGIN LEVEL: 0

PSCL4 TOTAL     ACCESS:       7231  HIT:       7231  MISS:          0  HIT %:        100  MISS %:          0   MPKI: 0
PSCL4 LOAD TRANSLATION ACCESS:       7231  HIT:       7231  MISS:          0  HIT %:        100  MISS %:          0   MPKI: 0
PSCL4 PREFETCH  REQUESTED:          0  ISSUED:          0  USEFUL:          0  USELESS:          0
PSCL4 USEFUL LOAD PREFETCHES:          0 PREFETCH ISSUED TO LOWER LEVEL:          0  ACCURACY: -nan
PSCL4 TIMELY PREFETCHES:          0 LATE PREFETCHES: 0 DROPPED PREFETCHES: 0
PSCL4 PREFETCHES SAME FILL-ORIGIN LEVEL: 0 DIFFERENT FILL-ORIGIN LEVEL: 0

PSCL3 TOTAL     ACCESS:       7231  HIT:       7231  MISS:          0  HIT %:        100  MISS %:          0   MPKI: 0
PSCL3 LOAD TRANSLATION ACCESS:       7231  HIT:       7231  MISS:          0  HIT %:        100  MISS %:          0   MPKI: 0
PSCL3 PREFETCH  REQUESTED:          0  ISSUED:          0  USEFUL:          0  USELESS:          0
PSCL3 USEFUL LOAD PREFETCHES:          0 PREFETCH ISSUED TO LOWER LEVEL:          0  ACCURACY: -nan
PSCL3 TIMELY PREFETCHES:          0 LATE PREFETCHES: 0 DROPPED PREFETCHES: 0
PSCL3 PREFETCHES SAME FILL-ORIGIN LEVEL: 0 DIFFERENT FILL-ORIGIN LEVEL: 0

PSCL2 TOTAL     ACCESS:       7231  HIT:       5771  MISS:       1460  HIT %:    79.8092  MISS %:    20.1908   MPKI: 0.0292
PSCL2 LOAD TRANSLATION ACCESS:       7231  HIT:       5771  MISS:       1460  HIT %:    79.8092  MISS %:    20.1908   MPKI: 0.0292
PSCL2 PREFETCH  REQUESTED:          0  ISSUED:          0  USEFUL:          0  USELESS:          0
PSCL2 USEFUL LOAD PREFETCHES:          0 PREFETCH ISSUED TO LOWER LEVEL:          0  ACCURACY: -nan
PSCL2 TIMELY PREFETCHES:          0 LATE PREFETCHES: 0 DROPPED PREFETCHES: 0
PSCL2 PREFETCHES SAME FILL-ORIGIN LEVEL: 0 DIFFERENT FILL-ORIGIN LEVEL: 0

LLC TOTAL     ACCESS:     101345  HIT:      16282  MISS:      85063  HIT %:    16.0659  MISS %:    83.9341   MPKI: 1.70126
LLC LOAD      ACCESS:      75859  HIT:       5528  MISS:      70331  HIT %:     7.2872  MISS %:    92.7128   MPKI: 1.40662
LLC RFO       ACCESS:       4968  HIT:        705  MISS:       4263  HIT %:    14.1908  MISS %:    85.8092   MPKI: 0.08526
LLC WRITEBACK ACCESS:      17074  HIT:       9651  MISS:       7423  HIT %:    56.5245  MISS %:    43.4755   MPKI: 0.14846
LLC LOAD TRANSLATION ACCESS:       3444  HIT:        398  MISS:       3046  HIT %:    11.5563  MISS %:    88.4437   MPKI: 0.06092
LLC PREFETCH  REQUESTED:          0  ISSUED:          0  USEFUL:          0  USELESS:          0
LLC USEFUL LOAD PREFETCHES:          0 PREFETCH ISSUED TO LOWER LEVEL:          0  ACCURACY: -nan
LLC TIMELY PREFETCHES:          0 LATE PREFETCHES: 0 DROPPED PREFETCHES: 0
LLC PREFETCHES SAME FILL-ORIGIN LEVEL: 0 DIFFERENT FILL-ORIGIN LEVEL: 0
LLC AVERAGE MISS LATENCY: 613.358 cycles
LLC RQ	ACCESS:    7733879	FORWARD:          0	MERGED:          0	TO_CACHE:    7733878
LLC WQ	ACCESS:     211237	FORWARD:          1	MERGED:          0	TO_CACHE:     211237

LLC Dense regions hint to LLC: 0

RAW hits: 695300
Loads Generated: 12547406
Loads sent to L1D: 11852107
Stores Generated: 9826796
Stores sent to L1D: 9826795
Major fault: 0 Minor fault: 5572
Allocated PAGES: 15451

CPU 1 cumulative IPC: 0.320693 instructions: 50000003 cycles: 155912161
ITLB TOTAL     ACCESS:   10602912  HIT:   10602912  MISS:          0  HIT %:        100  MISS %:          0   MPKI: 0
ITLB LOAD TRANSLATION ACCESS:   10602912  HIT:   10602912  MISS:          0  HIT %:        100  MISS %:          0   MPKI: 0
ITLB PREFETCH  REQUESTED:          0  ISSUED:          0  USEFUL:          0  USELESS:          0
ITLB USEFUL LOAD PREFETCHES:          0 PREFETCH ISSUED TO LOWER LEVEL:          0  ACCURACY: -nan
ITLB TIMELY PREFETCHES:          0 LATE PREFETCHES: 0 DROPPED PREFETCHES: 0
ITLB PREFETCHES SAME FILL-ORIGIN LEVEL: 0 DIFFERENT FILL-ORIGIN LEVEL: 0
ITLB AVERAGE MISS LATENCY: -nan cycles
ITLB RQ	ACCESS:   12839686	FORWARD:          0	MERGED:    2236775	TO_CACHE:   10602911

DTLB TOTAL     ACCESS:   15618492  HIT:   15423048  MISS:     195444  HIT %:    98.7486  MISS %:    1.25136   MPKI: 3.90888
DTLB LOAD TRANSLATION ACCESS:   15618492  HIT:   15423048  MISS:     195444  HIT %:    98.7486  MISS %:    1.25136   MPKI: 3.90888
DTLB PREFETCH  REQUESTED:          0  ISSUED:          0  USEFUL:          0  USELESS:          0
DTLB USEFUL LOAD PREFETCHES:          0 PREFETCH ISSUED TO LOWER LEVEL:          0  ACCURACY: -nan
DTLB TIMELY PREFETCHES:          0 LATE PREFETCHES: 0 DROPPED PREFETCHES: 0
DTLB PREFETCHES SAME FILL-ORIGIN LEVEL: 0 DIFFERENT FILL-ORIGIN LEVEL: 0
DTLB AVERAGE MISS LATENCY: 12.5315 cycles
DTLB RQ	ACCESS:   19402182	FORWARD:          0	MERGED:    3776813	TO_CACHE:   15625369

STLB TOTAL     ACCESS:     195444  HIT:     190966  MISS:       4478  HIT %:    97.7088  MISS %:    2.29119   MPKI: 0.08956
STLB LOAD TRANSLATION ACCESS:     195444  HIT:     190966  MISS:       4478  HIT %:    97.7088  MISS %:    2.29119   MPKI: 0.08956
STLB PREFETCH  REQUESTED:          0  ISSUED:          0  USEFUL:          0  USELESS:          0
STLB USEFUL LOAD PREFETCHES:          0 PREFETCH ISSUED TO LOWER LEVEL:          0  ACCURACY: -nan
STLB TIMELY PREFETCHES:          0 LATE PREFETCHES: 0 DROPPED PREFETCHES: 0
STLB PREFETCHES SAME FILL-ORIGIN LEVEL: 0 DIFFERENT FILL-ORIGIN LEVEL: 0
STLB AVERAGE MISS LATENCY: 153.603 cycles
STLB RQ	ACCESS:     195444	FORWARD:          0	MERGED:          0	TO_CACHE:     195444

STLB Hit, L1D data hit: 0
STLB Hit, L2C data hit: 0
STLB Hit, LLC data hit: 0
STLB Hit, LLC data miss: 0
STLB STLB hints to L2: 0
L1D TOTAL     ACCESS:   18176874  HIT:   10546403  MISS:    7630471  HIT %:     58.021  MISS %:     41.979   MPKI: 152.609
L1D LOAD      ACCESS:   15373985  HIT:    7897719  MISS:    7476266  HIT %:    51.3707  MISS %:    48.6293   MPKI: 149.525
L1D RFO       ACCESS:    2802889  HIT:    2648684  MISS:     154205  HIT %:    94.4984  MISS %:    5.50164   MPKI: 3.0841
L1D PREFETCH  REQUESTED:          0  ISSUED:          0  USEFUL:          0  USELESS:          0
L1D USEFUL LOAD PREFETCHES:          0 PREFETCH ISSUED TO LOWER LEVEL:          0  ACCURACY: -nan
L1D TIMELY PREFETCHES:          0 LATE PREFETCHES: 0 DROPPED PREFETCHES: 0
L1D PREFETCHES SAME FILL-ORIGIN LEVEL: 0 DIFFERENT FILL-ORIGIN LEVEL: 0
L1D AVERAGE MISS LATENCY: 49.8865 cycles
L1D RQ	ACCESS:   20563081	FORWARD:          0	MERGED:    4302677	TO_CACHE:   16231413
L1D WQ	ACCESS:    3711168	FORWARD:      28991	MERGED:     540399	TO_CACHE:    3170769

L1D UNIQUE REGIONS ACCESSED: 0
L1D REGIONS CONFLICTS: 0
L1D Cross Page Prefetch Requests: 0
L1D Same Page Prefetch Requests: 0
L1D ROI Sum of L1D PQ occupancy: 0
L1D PREFETCHES PUSHED FROM L2C: 0
L1I TOTAL     ACCESS:   12839685  HIT:   12839685  MISS:          0  HIT %:        100  MISS %:          0   MPKI: 0
L1I LOAD      ACCESS:   12839685  HIT:   12839685  MISS:          0  HIT %:        100  MISS %:          0   MPKI: 0
L1I PREFETCH  REQUESTED:          0  ISSUED:          0  USEFUL:          0  USELESS:          0
L1I USEFUL LOAD PREFETCHES:          0 PREFETCH ISSUED TO LOWER LEVEL:          0  ACCURACY: -nan
L1I TIMELY PREFETCHES:          0 LATE PREFETCHES: 0 DROPPED PREFETCHES: 0
L1I PREFETCHES SAME FILL-ORIGIN LEVEL: 0 DIFFERENT FILL-ORIGIN LEVEL: 0
L1I AVERAGE MISS LATENCY: -nan cycles
L1I RQ	ACCESS:   18735760	FORWARD:          0	MERGED:    5896074	TO_CACHE:   12839686

BTB TOTAL     ACCESS:    8795734  HIT:    8795702  MISS:         32  HIT %:    99.9996  MISS %: 0.000363813   MPKI: 0.00064
BTB BRANCH_DIRECT_JUMP	ACCESS:    2039127  HIT:    2039121  MISS:          6
BTB BRANCH_INDIRECT	ACCESS:          0  HIT:          0  MISS:          0
BTB BRANCH_CONDITIONAL	ACCESS:    6755823  HIT:    6755801  MISS:         22
BTB BRANCH_DIRECT_CALL	ACCESS:        392  HIT:        390  MISS:          2
BTB BRANCH_INDIRECT_CALL	ACCESS:          0  HIT:          0  MISS:          0
BTB BRANCH_RETURN	ACCESS:        392  HIT:        390  MISS:          2
BTB BRANCH_OTHER ACCESS:          0  HIT:          0  MISS:          0

L2C TOTAL     ACCESS:    7826851  HIT:     195785  MISS:    7631066  HIT %:    2.50145  MISS %:    97.4985   MPKI: 152.621
L2C LOAD      ACCESS:    7476266  HIT:        643  MISS:    7475623  HIT %: 0.00860055  MISS %:    99.9914   MPKI: 149.512
L2C DATA LOAD MPKI: 149.512
L2C INSTRUCTION LOAD MPKI: 0
L2C RFO       ACCESS:     154205  HIT:        101  MISS:     154104  HIT %:  0.0654972  MISS %:    99.9345   MPKI: 3.08208
L2C WRITEBACK ACCESS:     191898  HIT:     191650  MISS:        248  HIT %:    99.8708  MISS %:   0.129235   MPKI: 0.00496
L2C LOAD TRANSLATION ACCESS:       4482  HIT:       3391  MISS:       1091  HIT %:    75.6582  MISS %:    24.3418   MPKI: 0.02182
L2C PREFETCH  REQUESTED:          0  ISSUED:          0  USEFUL:          0  USELESS:          0
L2C USEFUL LOAD PREFETCHES:          0 PREFETCH ISSUED TO LOWER LEVEL:          0  ACCURACY: -nan
L2C TIMELY PREFETCHES:          0 LATE PREFETCHES: 0 DROPPED PREFETCHES: 0
L2C PREFETCHES SAME FILL-ORIGIN LEVEL: 0 DIFFERENT FILL-ORIGIN LEVEL: 0
L2C AVERAGE MISS LATENCY: 34.7679 cycles
L2C RQ	ACCESS:    7634954	FORWARD:          0	MERGED:          0	TO_CACHE:    7634954
L2C WQ	ACCESS:     191898	FORWARD:          0	MERGED:          0	TO_CACHE:     191898

L2C Instructions Evicting Data 0
L2C Translations Evicting Data 1091
L2C Data Evicting Data 7628632
L2C Instructions Evicting Instructions 0
L2C Translations Evicting Instructions 0
L2C Data Evicting Instructions 0
L2C Instructions Evicting Translations 0
L2C Translations Evicting Translations 0
L2C Data Evicting Translations 1095
L2C Dense regions hint from L2: 0
PSCL5 TOTAL     ACCESS:       4478  HIT:       4478  MISS:          0  HIT %:        100  MISS %:          0   MPKI: 0
PSCL5 LOAD TRANSLATION ACCESS:       4478  HIT:       4478  MISS:          0  HIT %:        100  MISS %:          0   MPKI: 0
PSCL5 PREFETCH  REQUESTED:          0  ISSUED:          0  USEFUL:          0  USELESS:          0
PSCL5 USEFUL LOAD PREFETCHES:          0 PREFETCH ISSUED TO LOWER LEVEL:          0  ACCURACY: -nan
PSCL5 TIMELY PREFETCHES:          0 LATE PREFETCHES: 0 DROPPED PREFETCHES: 0
PSCL5 PREFETCHES SAME FILL-ORIGIN LEVEL: 0 DIFFERENT FILL-ORIGIN LEVEL: 0

PSCL4 TOTAL     ACCESS:       4478  HIT:       4478  MISS:          0  HIT %:        100  MISS %:          0   MPKI: 0
PSCL4 LOAD TRANSLATION ACCESS:       4478  HIT:       4478  MISS:          0  HIT %:        100  MISS %:          0   MPKI: 0
PSCL4 PREFETCH  REQUESTED:          0  ISSUED:          0  USEFUL:          0  USELESS:          0
PSCL4 USEFUL LOAD PREFETCHES:          0 PREFETCH ISSUED TO LOWER LEVEL:          0  ACCURACY: -nan
PSCL4 TIMELY PREFETCHES:          0 LATE PREFETCHES: 0 DROPPED PREFETCHES: 0
PSCL4 PREFETCHES SAME FILL-ORIGIN LEVEL: 0 DIFFERENT FILL-ORIGIN LEVEL: 0

PSCL3 TOTAL     ACCESS:       4478  HIT:       4478  MISS:          0  HIT %:        100  MISS %:          0   MPKI: 0
PSCL3 LOAD TRANSLATION ACCESS:       4478  HIT:       4478  MISS:          0  HIT %:        100  MISS %:          0   MPKI: 0
PSCL3 PREFETCH  REQUESTED:          0  ISSUED:          0  USEFUL:          0  USELESS:          0
PSCL3 USEFUL LOAD PREFETCHES:          0 PREFETCH ISSUED TO LOWER LEVEL:          0  ACCURACY: -nan
PSCL3 TIMELY PREFETCHES:          0 LATE PREFETCHES: 0 DROPPED PREFETCHES: 0
PSCL3 PREFETCHES SAME FILL-ORIGIN LEVEL: 0 DIFFERENT FILL-ORIGIN LEVEL: 0

PSCL2 TOTAL     ACCESS:       4478  HIT:       4465  MISS:         13  HIT %:    99.7097  MISS %:   0.290308   MPKI: 0.00026
PSCL2 LOAD TRANSLATION ACCESS:       4478  HIT:       4465  MISS:         13  HIT %:    99.7097  MISS %:   0.290308   MPKI: 0.00026
PSCL2 PREFETCH  REQUESTED:          0  ISSUED:          0  USEFUL:          0  USELESS:          0
PSCL2 USEFUL LOAD PREFETCHES:          0 PREFETCH ISSUED TO LOWER LEVEL:          0  ACCURACY: -nan
PSCL2 TIMELY PREFETCHES:          0 LATE PREFETCHES: 0 DROPPED PREFETCHES: 0
PSCL2 PREFETCHES SAME FILL-ORIGIN LEVEL: 0 DIFFERENT FILL-ORIGIN LEVEL: 0

LLC TOTAL     ACCESS:    7822834  HIT:    7577471  MISS:     245363  HIT %:    96.8635  MISS %:     3.1365   MPKI: 4.90726
LLC LOAD      ACCESS:    7475624  HIT:    7384121  MISS:      91503  HIT %:     98.776  MISS %:    1.22402   MPKI: 1.83006
LLC RFO       ACCESS:     154104  HIT:        922  MISS:     153182  HIT %:   0.598297  MISS %:    99.4017   MPKI: 3.06364
LLC WRITEBACK ACCESS:     192015  HIT:     192008  MISS:          7  HIT %:    99.9964  MISS %: 0.00364555   MPKI: 0.00014
LLC LOAD TRANSLATION ACCESS:       1091  HIT:        420  MISS:        671  HIT %:    38.4968  MISS %:    61.5032   MPKI: 0.01342
LLC PREFETCH  REQUESTED:          0  ISSUED:          0  USEFUL:          0  USELESS:          0
LLC USEFUL LOAD PREFETCHES:          0 PREFETCH ISSUED TO LOWER LEVEL:          0  ACCURACY: -nan
LLC TIMELY PREFETCHES:          0 LATE PREFETCHES: 0 DROPPED PREFETCHES: 0
LLC PREFETCHES SAME FILL-ORIGIN LEVEL: 0 DIFFERENT FILL-ORIGIN LEVEL: 0
LLC AVERAGE MISS LATENCY: 212.64 cycles
LLC RQ	ACCESS:    7733879	FORWARD:          0	MERGED:          0	TO_CACHE:    7733878
LLC WQ	ACCESS:     211237	FORWARD:          1	MERGED:          0	TO_CACHE:     211237

LLC Dense regions hint to LLC: 0

RAW hits: 2012585
Loads Generated: 22575664
Loads sent to L1D: 20563081
Stores Generated: 3711165
Stores sent to L1D: 3711168
Major fault: 0 Minor fault: 9879
Allocated PAGES: 15451

DRAM Statistics
 CHANNEL 0
 RQ ROW_BUFFER_HIT:      78461  ROW_BUFFER_MISS:     263228
 DBUS_CONGESTED:        471
 WQ ROW_BUFFER_HIT:      50308  ROW_BUFFER_MISS:     162690  FULL:          0

 AVG_CONGESTED_CYCLE: 4
 All warmup complete: 3
Channel 0 Bank busy for read cycles: 0
Channel 0 Bank busy for write cycles: 0
Channel 0
Rank 0
0banks busy for read cycles: 103952806
0banks busy for write cycles: 77806
1banks busy for read cycles: 21748543
1banks busy for write cycles: 10760528
2banks busy for read cycles: 7365207
2banks busy for write cycles: 4781790
3banks busy for read cycles: 1852075
3banks busy for write cycles: 2200730
4banks busy for read cycles: 260258
4banks busy for write cycles: 1129299
5banks busy for read cycles: 41971
5banks busy for write cycles: 671379
6banks busy for read cycles: 9714
6banks busy for write cycles: 461892
7banks busy for read cycles: 4329
7banks busy for write cycles: 328636
8banks busy for read cycles: 4466
8banks busy for write cycles: 260733

CPU 0 Branch Prediction Accuracy: 96.5358% MPKI: 4.91863 Average ROB Occupancy at Mispredict: 29.7973
Branch types
NOT_BRANCH: 59865706 83.8297%
BRANCH_DIRECT_JUMP: 1489963 2.08639%
BRANCH_INDIRECT: 470090 0.658265%
BRANCH_CONDITIONAL: 8274937 11.5874%
BRANCH_DIRECT_CALL: 535469 0.749815%
BRANCH_INDIRECT_CALL: 120904 0.169301%
BRANCH_RETURN: 656375 0.919119%
BRANCH_OTHER: 0 0%


CPU 1 Branch Prediction Accuracy: 97.6795% MPKI: 4.20592 Average ROB Occupancy at Mispredict: 51.2012
Branch types
NOT_BRANCH: 40937319 81.8746%
BRANCH_DIRECT_JUMP: 2039127 4.07825%
BRANCH_INDIRECT: 0 0%
BRANCH_CONDITIONAL: 7022764 14.0455%
BRANCH_DIRECT_CALL: 392 0.000784%
BRANCH_INDIRECT_CALL: 0 0%
BRANCH_RETURN: 392 0.000784%
BRANCH_OTHER: 0 0%

DRAM PAGES: 1048576
Allocated PAGES: 15451
