
---------- Begin Simulation Statistics ----------
final_tick                               6237231069000                       # Number of ticks from beginning of simulation (restored from checkpoints and never reset)
host_inst_rate                                 300410                       # Simulator instruction rate (inst/s)
host_mem_usage                               16984120                       # Number of bytes of host memory used
host_op_rate                                   304946                       # Simulator op (including micro ops) rate (op/s)
host_seconds                                  6657.57                       # Real time elapsed on the host
host_tick_rate                              167739677                       # Simulator tick rate (ticks/s)
sim_freq                                 1000000000000                       # Frequency of simulated ticks
sim_insts                                  2000000023                       # Number of instructions simulated
sim_ops                                    2030196181                       # Number of ops (including micro ops) simulated
sim_seconds                                  1.116739                       # Number of seconds simulated
sim_ticks                                1116738684000                       # Number of ticks simulated
system.cpu.Branches                                 9                       # Number of branches fetched
system.cpu.committedInsts                          20                       # Number of instructions committed
system.cpu.committedOps                            20                       # Number of ops (including micro ops) committed
system.cpu.dcache.MSHRs.leapFrogMisses        8390013                       # number of false blocks from MSHR
system.cpu.icache.MSHRs.leapFrogMisses              0                       # number of false blocks from MSHR
system.cpu.idle_fraction                            0                       # Percentage of idle cycles
system.cpu.not_idle_fraction                        1                       # Percentage of non-idle cycles
system.cpu.numCycles                               20                       # number of cpu cycles simulated
system.cpu.numWorkItemsCompleted                    0                       # number of work items this cpu completed
system.cpu.numWorkItemsStarted                      0                       # number of work items this cpu started
system.cpu.num_busy_cycles                         20                       # Number of busy cycles
system.cpu.num_cc_register_reads                   15                       # number of times the CC registers were read
system.cpu.num_cc_register_writes                   9                       # number of times the CC registers were written
system.cpu.num_conditional_control_insts            5                       # number of instructions that are conditional controls
system.cpu.num_fp_alu_accesses                      0                       # Number of float alu accesses
system.cpu.num_fp_insts                             0                       # number of float instructions
system.cpu.num_fp_register_reads                    0                       # number of times the floating registers were read
system.cpu.num_fp_register_writes                   0                       # number of times the floating registers were written
system.cpu.num_func_calls                           2                       # number of times a function call or return occured
system.cpu.num_idle_cycles                          0                       # Number of idle cycles
system.cpu.num_int_alu_accesses                    13                       # Number of integer alu accesses
system.cpu.num_int_insts                           13                       # number of integer instructions
system.cpu.num_int_register_reads                  17                       # number of times the integer registers were read
system.cpu.num_int_register_writes                 12                       # number of times the integer registers were written
system.cpu.num_load_insts                           4                       # Number of load instructions
system.cpu.num_mem_refs                             4                       # number of memory refs
system.cpu.num_store_insts                          0                       # Number of store instructions
system.cpu.num_vec_alu_accesses                     0                       # Number of vector alu accesses
system.cpu.num_vec_insts                            0                       # number of vector instructions
system.cpu.num_vec_register_reads                   0                       # number of times the vector registers were read
system.cpu.num_vec_register_writes                  0                       # number of times the vector registers were written
system.cpu.op_class::No_OpClass                     0      0.00%      0.00% # Class of executed instruction
system.cpu.op_class::IntAlu                        16     80.00%     80.00% # Class of executed instruction
system.cpu.op_class::IntMult                        0      0.00%     80.00% # Class of executed instruction
system.cpu.op_class::IntDiv                         0      0.00%     80.00% # Class of executed instruction
system.cpu.op_class::FloatAdd                       0      0.00%     80.00% # Class of executed instruction
system.cpu.op_class::FloatCmp                       0      0.00%     80.00% # Class of executed instruction
system.cpu.op_class::FloatCvt                       0      0.00%     80.00% # Class of executed instruction
system.cpu.op_class::FloatMult                      0      0.00%     80.00% # Class of executed instruction
system.cpu.op_class::FloatMultAcc                   0      0.00%     80.00% # Class of executed instruction
system.cpu.op_class::FloatDiv                       0      0.00%     80.00% # Class of executed instruction
system.cpu.op_class::FloatMisc                      0      0.00%     80.00% # Class of executed instruction
system.cpu.op_class::FloatSqrt                      0      0.00%     80.00% # Class of executed instruction
system.cpu.op_class::SimdAdd                        0      0.00%     80.00% # Class of executed instruction
system.cpu.op_class::SimdAddAcc                     0      0.00%     80.00% # Class of executed instruction
system.cpu.op_class::SimdAlu                        0      0.00%     80.00% # Class of executed instruction
system.cpu.op_class::SimdCmp                        0      0.00%     80.00% # Class of executed instruction
system.cpu.op_class::SimdCvt                        0      0.00%     80.00% # Class of executed instruction
system.cpu.op_class::SimdMisc                       0      0.00%     80.00% # Class of executed instruction
system.cpu.op_class::SimdMult                       0      0.00%     80.00% # Class of executed instruction
system.cpu.op_class::SimdMultAcc                    0      0.00%     80.00% # Class of executed instruction
system.cpu.op_class::SimdShift                      0      0.00%     80.00% # Class of executed instruction
system.cpu.op_class::SimdShiftAcc                   0      0.00%     80.00% # Class of executed instruction
system.cpu.op_class::SimdDiv                        0      0.00%     80.00% # Class of executed instruction
system.cpu.op_class::SimdSqrt                       0      0.00%     80.00% # Class of executed instruction
system.cpu.op_class::SimdFloatAdd                   0      0.00%     80.00% # Class of executed instruction
system.cpu.op_class::SimdFloatAlu                   0      0.00%     80.00% # Class of executed instruction
system.cpu.op_class::SimdFloatCmp                   0      0.00%     80.00% # Class of executed instruction
system.cpu.op_class::SimdFloatCvt                   0      0.00%     80.00% # Class of executed instruction
system.cpu.op_class::SimdFloatDiv                   0      0.00%     80.00% # Class of executed instruction
system.cpu.op_class::SimdFloatMisc                  0      0.00%     80.00% # Class of executed instruction
system.cpu.op_class::SimdFloatMult                  0      0.00%     80.00% # Class of executed instruction
system.cpu.op_class::SimdFloatMultAcc               0      0.00%     80.00% # Class of executed instruction
system.cpu.op_class::SimdFloatSqrt                  0      0.00%     80.00% # Class of executed instruction
system.cpu.op_class::SimdReduceAdd                  0      0.00%     80.00% # Class of executed instruction
system.cpu.op_class::SimdReduceAlu                  0      0.00%     80.00% # Class of executed instruction
system.cpu.op_class::SimdReduceCmp                  0      0.00%     80.00% # Class of executed instruction
system.cpu.op_class::SimdFloatReduceAdd             0      0.00%     80.00% # Class of executed instruction
system.cpu.op_class::SimdFloatReduceCmp             0      0.00%     80.00% # Class of executed instruction
system.cpu.op_class::SimdAes                        0      0.00%     80.00% # Class of executed instruction
system.cpu.op_class::SimdAesMix                     0      0.00%     80.00% # Class of executed instruction
system.cpu.op_class::SimdSha1Hash                   0      0.00%     80.00% # Class of executed instruction
system.cpu.op_class::SimdSha1Hash2                  0      0.00%     80.00% # Class of executed instruction
system.cpu.op_class::SimdSha256Hash                 0      0.00%     80.00% # Class of executed instruction
system.cpu.op_class::SimdSha256Hash2                0      0.00%     80.00% # Class of executed instruction
system.cpu.op_class::SimdShaSigma2                  0      0.00%     80.00% # Class of executed instruction
system.cpu.op_class::SimdShaSigma3                  0      0.00%     80.00% # Class of executed instruction
system.cpu.op_class::SimdPredAlu                    0      0.00%     80.00% # Class of executed instruction
system.cpu.op_class::MemRead                        4     20.00%    100.00% # Class of executed instruction
system.cpu.op_class::MemWrite                       0      0.00%    100.00% # Class of executed instruction
system.cpu.op_class::FloatMemRead                   0      0.00%    100.00% # Class of executed instruction
system.cpu.op_class::FloatMemWrite                  0      0.00%    100.00% # Class of executed instruction
system.cpu.op_class::IprAccess                      0      0.00%    100.00% # Class of executed instruction
system.cpu.op_class::InstPrefetch                   0      0.00%    100.00% # Class of executed instruction
system.cpu.op_class::total                         20                       # Class of executed instruction
system.cpu.workload.numSyscalls                     0                       # Number of system calls
system.l2.MSHRs.leapFrogMisses                     12                       # number of false blocks from MSHR
system.membus.snoop_filter.hit_multi_requests            0                       # Number of requests hitting in the snoop filter with multiple (>1) holders of the requested data.
system.membus.snoop_filter.hit_multi_snoops            0                       # Number of snoops hitting in the snoop filter with multiple (>1) holders of the requested data.
system.membus.snoop_filter.hit_single_requests     10789628                       # Number of requests hitting in the snoop filter with a single holder of the requested data.
system.membus.snoop_filter.hit_single_snoops            0                       # Number of snoops hitting in the snoop filter with a single holder of the requested data.
system.membus.snoop_filter.tot_requests      21710423                       # Total number of requests made to the snoop filter.
system.membus.snoop_filter.tot_snoops               0                       # Total number of snoops made to the snoop filter.
system.switch_cpus.cc_regfile_reads        1499393790                       # number of cc regfile reads
system.switch_cpus.cc_regfile_writes       1149881337                       # number of cc regfile writes
system.switch_cpus.committedInsts          2000000003                       # Number of Instructions Simulated
system.switch_cpus.committedOps            2030196161                       # Number of Ops (including micro ops) Simulated
system.switch_cpus.cpi                       1.116739                       # CPI: Cycles Per Instruction
system.switch_cpus.cpi_total                 1.116739                       # CPI: Total CPI of All Threads
system.switch_cpus.idleCycles                    5100                       # Total number of cycles that the CPU has spent unscheduled due to idling
system.switch_cpus.iew.branchMispredicts     49152047                       # Number of branch mispredicts detected at execute
system.switch_cpus.iew.exec_branches        833653166                       # Number of branches executed
system.switch_cpus.iew.exec_nop                  6886                       # number of nop insts executed
system.switch_cpus.iew.exec_rate             1.384099                       # Inst execution rate
system.switch_cpus.iew.exec_refs           1106969186                       # number of memory reference insts executed
system.switch_cpus.iew.exec_stores          133248051                       # Number of stores executed
system.switch_cpus.iew.exec_swp                     0                       # number of swp insts executed
system.switch_cpus.iew.iewBlockCycles       152533062                       # Number of cycles IEW is blocking
system.switch_cpus.iew.iewDispLoadInsts     914773936                       # Number of dispatched load instructions
system.switch_cpus.iew.iewDispNonSpecInsts            0                       # Number of dispatched non-speculative instructions
system.switch_cpus.iew.iewDispSquashedInsts     12420845                       # Number of squashed instructions skipped by dispatch
system.switch_cpus.iew.iewDispStoreInsts    149320815                       # Number of dispatched store instructions
system.switch_cpus.iew.iewDispatchedInsts   3285600277                       # Number of instructions dispatched to IQ
system.switch_cpus.iew.iewExecLoadInsts     973721135                       # Number of load instructions executed
system.switch_cpus.iew.iewExecSquashedInsts     65321780                       # Number of squashed instructions skipped in execute
system.switch_cpus.iew.iewExecutedInsts    3091353247                       # Number of executed instructions
system.switch_cpus.iew.iewIQFullEvents         319000                       # Number of times the IQ has become full, causing a stall
system.switch_cpus.iew.iewIdleCycles                0                       # Number of cycles IEW is idle
system.switch_cpus.iew.iewLSQFullEvents     151487079                       # Number of times the LSQ has become full, causing a stall
system.switch_cpus.iew.iewSquashCycles       47895992                       # Number of cycles IEW is squashing
system.switch_cpus.iew.iewUnblockCycles     152034178                       # Number of cycles IEW is unblocking
system.switch_cpus.iew.memOrderViolationEvents        22832                       # Number of memory order violations
system.switch_cpus.iew.predictedNotTakenIncorrect     27746351                       # Number of branches that were predicted not taken incorrectly
system.switch_cpus.iew.predictedTakenIncorrect     21405696                       # Number of branches that were predicted taken incorrectly
system.switch_cpus.iew.wb_consumers        2694590359                       # num instructions consuming a value
system.switch_cpus.iew.wb_count            2856534896                       # cumulative count of insts written-back
system.switch_cpus.iew.wb_fanout             0.518208                       # average fanout of values written-back
system.switch_cpus.iew.wb_producers        1396358747                       # num instructions producing a value
system.switch_cpus.iew.wb_rate               1.278963                       # insts written-back per cycle
system.switch_cpus.iew.wb_sent             2876946107                       # cumulative count of insts sent to commit
system.switch_cpus.int_regfile_reads       3395630903                       # number of integer regfile reads
system.switch_cpus.int_regfile_writes      2046867687                       # number of integer regfile writes
system.switch_cpus.ipc                       0.895465                       # IPC: Instructions Per Cycle
system.switch_cpus.ipc_total                 0.895465                       # IPC: Total IPC of All Threads
system.switch_cpus.iq.FU_type_0::No_OpClass           12      0.00%      0.00% # Type of FU issued
system.switch_cpus.iq.FU_type_0::IntAlu    2016482855     63.88%     63.88% # Type of FU issued
system.switch_cpus.iq.FU_type_0::IntMult      6616812      0.21%     64.09% # Type of FU issued
system.switch_cpus.iq.FU_type_0::IntDiv       2518452      0.08%     64.17% # Type of FU issued
system.switch_cpus.iq.FU_type_0::FloatAdd            0      0.00%     64.17% # Type of FU issued
system.switch_cpus.iq.FU_type_0::FloatCmp            0      0.00%     64.17% # Type of FU issued
system.switch_cpus.iq.FU_type_0::FloatCvt            0      0.00%     64.17% # Type of FU issued
system.switch_cpus.iq.FU_type_0::FloatMult            0      0.00%     64.17% # Type of FU issued
system.switch_cpus.iq.FU_type_0::FloatMultAcc            0      0.00%     64.17% # Type of FU issued
system.switch_cpus.iq.FU_type_0::FloatDiv            0      0.00%     64.17% # Type of FU issued
system.switch_cpus.iq.FU_type_0::FloatMisc            0      0.00%     64.17% # Type of FU issued
system.switch_cpus.iq.FU_type_0::FloatSqrt            0      0.00%     64.17% # Type of FU issued
system.switch_cpus.iq.FU_type_0::SimdAdd            0      0.00%     64.17% # Type of FU issued
system.switch_cpus.iq.FU_type_0::SimdAddAcc            0      0.00%     64.17% # Type of FU issued
system.switch_cpus.iq.FU_type_0::SimdAlu            0      0.00%     64.17% # Type of FU issued
system.switch_cpus.iq.FU_type_0::SimdCmp            0      0.00%     64.17% # Type of FU issued
system.switch_cpus.iq.FU_type_0::SimdCvt            0      0.00%     64.17% # Type of FU issued
system.switch_cpus.iq.FU_type_0::SimdMisc            0      0.00%     64.17% # Type of FU issued
system.switch_cpus.iq.FU_type_0::SimdMult            0      0.00%     64.17% # Type of FU issued
system.switch_cpus.iq.FU_type_0::SimdMultAcc            0      0.00%     64.17% # Type of FU issued
system.switch_cpus.iq.FU_type_0::SimdShift            0      0.00%     64.17% # Type of FU issued
system.switch_cpus.iq.FU_type_0::SimdShiftAcc            0      0.00%     64.17% # Type of FU issued
system.switch_cpus.iq.FU_type_0::SimdDiv            0      0.00%     64.17% # Type of FU issued
system.switch_cpus.iq.FU_type_0::SimdSqrt            0      0.00%     64.17% # Type of FU issued
system.switch_cpus.iq.FU_type_0::SimdFloatAdd            0      0.00%     64.17% # Type of FU issued
system.switch_cpus.iq.FU_type_0::SimdFloatAlu            0      0.00%     64.17% # Type of FU issued
system.switch_cpus.iq.FU_type_0::SimdFloatCmp            0      0.00%     64.17% # Type of FU issued
system.switch_cpus.iq.FU_type_0::SimdFloatCvt            0      0.00%     64.17% # Type of FU issued
system.switch_cpus.iq.FU_type_0::SimdFloatDiv            0      0.00%     64.17% # Type of FU issued
system.switch_cpus.iq.FU_type_0::SimdFloatMisc            0      0.00%     64.17% # Type of FU issued
system.switch_cpus.iq.FU_type_0::SimdFloatMult            0      0.00%     64.17% # Type of FU issued
system.switch_cpus.iq.FU_type_0::SimdFloatMultAcc            0      0.00%     64.17% # Type of FU issued
system.switch_cpus.iq.FU_type_0::SimdFloatSqrt            0      0.00%     64.17% # Type of FU issued
system.switch_cpus.iq.FU_type_0::SimdReduceAdd            0      0.00%     64.17% # Type of FU issued
system.switch_cpus.iq.FU_type_0::SimdReduceAlu            0      0.00%     64.17% # Type of FU issued
system.switch_cpus.iq.FU_type_0::SimdReduceCmp            0      0.00%     64.17% # Type of FU issued
system.switch_cpus.iq.FU_type_0::SimdFloatReduceAdd            0      0.00%     64.17% # Type of FU issued
system.switch_cpus.iq.FU_type_0::SimdFloatReduceCmp            0      0.00%     64.17% # Type of FU issued
system.switch_cpus.iq.FU_type_0::SimdAes            0      0.00%     64.17% # Type of FU issued
system.switch_cpus.iq.FU_type_0::SimdAesMix            0      0.00%     64.17% # Type of FU issued
system.switch_cpus.iq.FU_type_0::SimdSha1Hash            0      0.00%     64.17% # Type of FU issued
system.switch_cpus.iq.FU_type_0::SimdSha1Hash2            0      0.00%     64.17% # Type of FU issued
system.switch_cpus.iq.FU_type_0::SimdSha256Hash            0      0.00%     64.17% # Type of FU issued
system.switch_cpus.iq.FU_type_0::SimdSha256Hash2            0      0.00%     64.17% # Type of FU issued
system.switch_cpus.iq.FU_type_0::SimdShaSigma2            0      0.00%     64.17% # Type of FU issued
system.switch_cpus.iq.FU_type_0::SimdShaSigma3            0      0.00%     64.17% # Type of FU issued
system.switch_cpus.iq.FU_type_0::SimdPredAlu            0      0.00%     64.17% # Type of FU issued
system.switch_cpus.iq.FU_type_0::MemRead    992732919     31.45%     95.62% # Type of FU issued
system.switch_cpus.iq.FU_type_0::MemWrite    138323977      4.38%    100.00% # Type of FU issued
system.switch_cpus.iq.FU_type_0::FloatMemRead            0      0.00%    100.00% # Type of FU issued
system.switch_cpus.iq.FU_type_0::FloatMemWrite            0      0.00%    100.00% # Type of FU issued
system.switch_cpus.iq.FU_type_0::IprAccess            0      0.00%    100.00% # Type of FU issued
system.switch_cpus.iq.FU_type_0::InstPrefetch            0      0.00%    100.00% # Type of FU issued
system.switch_cpus.iq.FU_type_0::total     3156675027                       # Type of FU issued
system.switch_cpus.iq.fp_alu_accesses               0                       # Number of floating point alu accesses
system.switch_cpus.iq.fp_inst_queue_reads            0                       # Number of floating instruction queue reads
system.switch_cpus.iq.fp_inst_queue_wakeup_accesses            0                       # Number of floating instruction queue wakeup accesses
system.switch_cpus.iq.fp_inst_queue_writes            0                       # Number of floating instruction queue writes
system.switch_cpus.iq.fu_busy_cnt            40462899                       # FU busy when requested
system.switch_cpus.iq.fu_busy_rate           0.012818                       # FU busy rate (busy events/executed inst)
system.switch_cpus.iq.fu_full::No_OpClass            0      0.00%      0.00% # attempts to use FU when none available
system.switch_cpus.iq.fu_full::IntAlu         2642983      6.53%      6.53% # attempts to use FU when none available
system.switch_cpus.iq.fu_full::IntMult          91634      0.23%      6.76% # attempts to use FU when none available
system.switch_cpus.iq.fu_full::IntDiv               0      0.00%      6.76% # attempts to use FU when none available
system.switch_cpus.iq.fu_full::FloatAdd             0      0.00%      6.76% # attempts to use FU when none available
system.switch_cpus.iq.fu_full::FloatCmp             0      0.00%      6.76% # attempts to use FU when none available
system.switch_cpus.iq.fu_full::FloatCvt             0      0.00%      6.76% # attempts to use FU when none available
system.switch_cpus.iq.fu_full::FloatMult            0      0.00%      6.76% # attempts to use FU when none available
system.switch_cpus.iq.fu_full::FloatMultAcc            0      0.00%      6.76% # attempts to use FU when none available
system.switch_cpus.iq.fu_full::FloatDiv             0      0.00%      6.76% # attempts to use FU when none available
system.switch_cpus.iq.fu_full::FloatMisc            0      0.00%      6.76% # attempts to use FU when none available
system.switch_cpus.iq.fu_full::FloatSqrt            0      0.00%      6.76% # attempts to use FU when none available
system.switch_cpus.iq.fu_full::SimdAdd              0      0.00%      6.76% # attempts to use FU when none available
system.switch_cpus.iq.fu_full::SimdAddAcc            0      0.00%      6.76% # attempts to use FU when none available
system.switch_cpus.iq.fu_full::SimdAlu              0      0.00%      6.76% # attempts to use FU when none available
system.switch_cpus.iq.fu_full::SimdCmp              0      0.00%      6.76% # attempts to use FU when none available
system.switch_cpus.iq.fu_full::SimdCvt              0      0.00%      6.76% # attempts to use FU when none available
system.switch_cpus.iq.fu_full::SimdMisc             0      0.00%      6.76% # attempts to use FU when none available
system.switch_cpus.iq.fu_full::SimdMult             0      0.00%      6.76% # attempts to use FU when none available
system.switch_cpus.iq.fu_full::SimdMultAcc            0      0.00%      6.76% # attempts to use FU when none available
system.switch_cpus.iq.fu_full::SimdShift            0      0.00%      6.76% # attempts to use FU when none available
system.switch_cpus.iq.fu_full::SimdShiftAcc            0      0.00%      6.76% # attempts to use FU when none available
system.switch_cpus.iq.fu_full::SimdDiv              0      0.00%      6.76% # attempts to use FU when none available
system.switch_cpus.iq.fu_full::SimdSqrt             0      0.00%      6.76% # attempts to use FU when none available
system.switch_cpus.iq.fu_full::SimdFloatAdd            0      0.00%      6.76% # attempts to use FU when none available
system.switch_cpus.iq.fu_full::SimdFloatAlu            0      0.00%      6.76% # attempts to use FU when none available
system.switch_cpus.iq.fu_full::SimdFloatCmp            0      0.00%      6.76% # attempts to use FU when none available
system.switch_cpus.iq.fu_full::SimdFloatCvt            0      0.00%      6.76% # attempts to use FU when none available
system.switch_cpus.iq.fu_full::SimdFloatDiv            0      0.00%      6.76% # attempts to use FU when none available
system.switch_cpus.iq.fu_full::SimdFloatMisc            0      0.00%      6.76% # attempts to use FU when none available
system.switch_cpus.iq.fu_full::SimdFloatMult            0      0.00%      6.76% # attempts to use FU when none available
system.switch_cpus.iq.fu_full::SimdFloatMultAcc            0      0.00%      6.76% # attempts to use FU when none available
system.switch_cpus.iq.fu_full::SimdFloatSqrt            0      0.00%      6.76% # attempts to use FU when none available
system.switch_cpus.iq.fu_full::SimdReduceAdd            0      0.00%      6.76% # attempts to use FU when none available
system.switch_cpus.iq.fu_full::SimdReduceAlu            0      0.00%      6.76% # attempts to use FU when none available
system.switch_cpus.iq.fu_full::SimdReduceCmp            0      0.00%      6.76% # attempts to use FU when none available
system.switch_cpus.iq.fu_full::SimdFloatReduceAdd            0      0.00%      6.76% # attempts to use FU when none available
system.switch_cpus.iq.fu_full::SimdFloatReduceCmp            0      0.00%      6.76% # attempts to use FU when none available
system.switch_cpus.iq.fu_full::SimdAes              0      0.00%      6.76% # attempts to use FU when none available
system.switch_cpus.iq.fu_full::SimdAesMix            0      0.00%      6.76% # attempts to use FU when none available
system.switch_cpus.iq.fu_full::SimdSha1Hash            0      0.00%      6.76% # attempts to use FU when none available
system.switch_cpus.iq.fu_full::SimdSha1Hash2            0      0.00%      6.76% # attempts to use FU when none available
system.switch_cpus.iq.fu_full::SimdSha256Hash            0      0.00%      6.76% # attempts to use FU when none available
system.switch_cpus.iq.fu_full::SimdSha256Hash2            0      0.00%      6.76% # attempts to use FU when none available
system.switch_cpus.iq.fu_full::SimdShaSigma2            0      0.00%      6.76% # attempts to use FU when none available
system.switch_cpus.iq.fu_full::SimdShaSigma3            0      0.00%      6.76% # attempts to use FU when none available
system.switch_cpus.iq.fu_full::SimdPredAlu            0      0.00%      6.76% # attempts to use FU when none available
system.switch_cpus.iq.fu_full::MemRead       34225199     84.58%     91.34% # attempts to use FU when none available
system.switch_cpus.iq.fu_full::MemWrite       3503083      8.66%    100.00% # attempts to use FU when none available
system.switch_cpus.iq.fu_full::FloatMemRead            0      0.00%    100.00% # attempts to use FU when none available
system.switch_cpus.iq.fu_full::FloatMemWrite            0      0.00%    100.00% # attempts to use FU when none available
system.switch_cpus.iq.fu_full::IprAccess            0      0.00%    100.00% # attempts to use FU when none available
system.switch_cpus.iq.fu_full::InstPrefetch            0      0.00%    100.00% # attempts to use FU when none available
system.switch_cpus.iq.int_alu_accesses     3197137763                       # Number of integer alu accesses
system.switch_cpus.iq.int_inst_queue_reads   8589646778                       # Number of integer instruction queue reads
system.switch_cpus.iq.int_inst_queue_wakeup_accesses   2856534805                       # Number of integer instruction queue wakeup accesses
system.switch_cpus.iq.int_inst_queue_writes   4541012220                       # Number of integer instruction queue writes
system.switch_cpus.iq.iqInstsAdded         3285593391                       # Number of instructions added to the IQ (excludes non-spec)
system.switch_cpus.iq.iqInstsIssued        3156675027                       # Number of instructions issued
system.switch_cpus.iq.iqSquashedInstsExamined   1255397224                       # Number of squashed instructions iterated over during squash; mainly for profiling
system.switch_cpus.iq.iqSquashedInstsIssued      2361879                       # Number of squashed instructions issued
system.switch_cpus.iq.iqSquashedOperandsExamined    734347565                       # Number of squashed operands that are examined and possibly removed from graph
system.switch_cpus.iq.issued_per_cycle::samples   2233472248                       # Number of insts issued each cycle
system.switch_cpus.iq.issued_per_cycle::mean     1.413349                       # Number of insts issued each cycle
system.switch_cpus.iq.issued_per_cycle::stdev     1.737214                       # Number of insts issued each cycle
system.switch_cpus.iq.issued_per_cycle::underflows            0      0.00%      0.00% # Number of insts issued each cycle
system.switch_cpus.iq.issued_per_cycle::0   1000222036     44.78%     44.78% # Number of insts issued each cycle
system.switch_cpus.iq.issued_per_cycle::1    393805454     17.63%     62.42% # Number of insts issued each cycle
system.switch_cpus.iq.issued_per_cycle::2    327500179     14.66%     77.08% # Number of insts issued each cycle
system.switch_cpus.iq.issued_per_cycle::3    210771852      9.44%     86.52% # Number of insts issued each cycle
system.switch_cpus.iq.issued_per_cycle::4    151304842      6.77%     93.29% # Number of insts issued each cycle
system.switch_cpus.iq.issued_per_cycle::5     71972510      3.22%     96.51% # Number of insts issued each cycle
system.switch_cpus.iq.issued_per_cycle::6     43015451      1.93%     98.44% # Number of insts issued each cycle
system.switch_cpus.iq.issued_per_cycle::7     26660357      1.19%     99.63% # Number of insts issued each cycle
system.switch_cpus.iq.issued_per_cycle::8      8219567      0.37%    100.00% # Number of insts issued each cycle
system.switch_cpus.iq.issued_per_cycle::overflows            0      0.00%    100.00% # Number of insts issued each cycle
system.switch_cpus.iq.issued_per_cycle::min_value            0                       # Number of insts issued each cycle
system.switch_cpus.iq.issued_per_cycle::max_value            8                       # Number of insts issued each cycle
system.switch_cpus.iq.issued_per_cycle::total   2233472248                       # Number of insts issued each cycle
system.switch_cpus.iq.rate                   1.413345                       # Inst issue rate
system.switch_cpus.iq.vec_alu_accesses            151                       # Number of vector alu accesses
system.switch_cpus.iq.vec_inst_queue_reads          302                       # Number of vector instruction queue reads
system.switch_cpus.iq.vec_inst_queue_wakeup_accesses           91                       # Number of vector instruction queue wakeup accesses
system.switch_cpus.iq.vec_inst_queue_writes          336                       # Number of vector instruction queue writes
system.switch_cpus.memDep0.conflictingLoads     43240025                       # Number of conflicting loads.
system.switch_cpus.memDep0.conflictingStores     31775938                       # Number of conflicting stores.
system.switch_cpus.memDep0.insertedLoads    914773936                       # Number of loads inserted to the mem dependence unit.
system.switch_cpus.memDep0.insertedStores    149320815                       # Number of stores inserted to the mem dependence unit.
system.switch_cpus.misc_regfile_reads      9806984795                       # number of misc regfile reads
system.switch_cpus.misc_regfile_writes              1                       # number of misc regfile writes
system.switch_cpus.numCycles               2233477348                       # number of cpu cycles simulated
system.switch_cpus.numWorkItemsCompleted            0                       # number of work items this cpu completed
system.switch_cpus.numWorkItemsStarted              0                       # number of work items this cpu started
system.switch_cpus.timesIdled                      60                       # Number of times that the entire CPU went into an idle state and unscheduled itself
system.switch_cpus.vec_regfile_reads               43                       # number of vector regfile reads
system.switch_cpus.vec_regfile_writes              95                       # number of vector regfile writes
system.tol2bus.snoop_filter.hit_multi_requests        52419                       # Number of requests hitting in the snoop filter with multiple (>1) holders of the requested data.
system.tol2bus.snoop_filter.hit_multi_snoops            0                       # Number of snoops hitting in the snoop filter with multiple (>1) holders of the requested data.
system.tol2bus.snoop_filter.hit_single_requests     76374953                       # Number of requests hitting in the snoop filter with a single holder of the requested data.
system.tol2bus.snoop_filter.hit_single_snoops          385                       # Number of snoops hitting in the snoop filter with a single holder of the requested data.
system.tol2bus.snoop_filter.tot_requests    152753667                       # Total number of requests made to the snoop filter.
system.tol2bus.snoop_filter.tot_snoops            385                       # Total number of snoops made to the snoop filter.
system.clk_domain.clock                          1000                       # Clock period in ticks
system.cpu.dcache.demand_hits::.switch_cpus.data    759209060                       # number of demand (read+write) hits
system.cpu.dcache.demand_hits::total        759209060                       # number of demand (read+write) hits
system.cpu.dcache.overall_hits::.switch_cpus.data    759209060                       # number of overall hits
system.cpu.dcache.overall_hits::total       759209060                       # number of overall hits
system.cpu.dcache.demand_misses::.cpu.data            4                       # number of demand (read+write) misses
system.cpu.dcache.demand_misses::.switch_cpus.data    110977378                       # number of demand (read+write) misses
system.cpu.dcache.demand_misses::total      110977382                       # number of demand (read+write) misses
system.cpu.dcache.overall_misses::.cpu.data            4                       # number of overall misses
system.cpu.dcache.overall_misses::.switch_cpus.data    110977378                       # number of overall misses
system.cpu.dcache.overall_misses::total     110977382                       # number of overall misses
system.cpu.dcache.demand_miss_latency::.switch_cpus.data 1851510811201                       # number of demand (read+write) miss cycles
system.cpu.dcache.demand_miss_latency::total 1851510811201                       # number of demand (read+write) miss cycles
system.cpu.dcache.overall_miss_latency::.switch_cpus.data 1851510811201                       # number of overall miss cycles
system.cpu.dcache.overall_miss_latency::total 1851510811201                       # number of overall miss cycles
system.cpu.dcache.demand_accesses::.cpu.data            4                       # number of demand (read+write) accesses
system.cpu.dcache.demand_accesses::.switch_cpus.data    870186438                       # number of demand (read+write) accesses
system.cpu.dcache.demand_accesses::total    870186442                       # number of demand (read+write) accesses
system.cpu.dcache.overall_accesses::.cpu.data            4                       # number of overall (read+write) accesses
system.cpu.dcache.overall_accesses::.switch_cpus.data    870186438                       # number of overall (read+write) accesses
system.cpu.dcache.overall_accesses::total    870186442                       # number of overall (read+write) accesses
system.cpu.dcache.demand_miss_rate::.cpu.data            1                       # miss rate for demand accesses
system.cpu.dcache.demand_miss_rate::.switch_cpus.data     0.127533                       # miss rate for demand accesses
system.cpu.dcache.demand_miss_rate::total     0.127533                       # miss rate for demand accesses
system.cpu.dcache.overall_miss_rate::.cpu.data            1                       # miss rate for overall accesses
system.cpu.dcache.overall_miss_rate::.switch_cpus.data     0.127533                       # miss rate for overall accesses
system.cpu.dcache.overall_miss_rate::total     0.127533                       # miss rate for overall accesses
system.cpu.dcache.demand_avg_miss_latency::.switch_cpus.data 16683.677742                       # average overall miss latency
system.cpu.dcache.demand_avg_miss_latency::total 16683.677141                       # average overall miss latency
system.cpu.dcache.overall_avg_miss_latency::.switch_cpus.data 16683.677742                       # average overall miss latency
system.cpu.dcache.overall_avg_miss_latency::total 16683.677141                       # average overall miss latency
system.cpu.dcache.blocked_cycles::no_mshrs    250837191                       # number of cycles access was blocked
system.cpu.dcache.blocked_cycles::no_targets            0                       # number of cycles access was blocked
system.cpu.dcache.blocked::no_mshrs          28539158                       # number of cycles access was blocked
system.cpu.dcache.blocked::no_targets               0                       # number of cycles access was blocked
system.cpu.dcache.avg_blocked_cycles::no_mshrs     8.789229                       # average number of cycles each access was blocked
system.cpu.dcache.avg_blocked_cycles::no_targets          nan                       # average number of cycles each access was blocked
system.cpu.dcache.ghost_timestamp_misses            0                       # number of times timestamp policy causes a block to be inaccessible
system.cpu.dcache.ghost_commits                     0                       # number of cache lines moved from ghost to main
system.cpu.dcache.same_leapfrogs                    0                       # number of times leapfrogging occurs with a shared MSHR request
system.cpu.dcache.writebacks::.writebacks     76370234                       # number of writebacks
system.cpu.dcache.writebacks::total          76370234                       # number of writebacks
system.cpu.dcache.demand_mshr_hits::.switch_cpus.data     34600342                       # number of demand (read+write) MSHR hits
system.cpu.dcache.demand_mshr_hits::total     34600342                       # number of demand (read+write) MSHR hits
system.cpu.dcache.overall_mshr_hits::.switch_cpus.data     34600342                       # number of overall MSHR hits
system.cpu.dcache.overall_mshr_hits::total     34600342                       # number of overall MSHR hits
system.cpu.dcache.demand_mshr_misses::.switch_cpus.data     76377036                       # number of demand (read+write) MSHR misses
system.cpu.dcache.demand_mshr_misses::total     76377036                       # number of demand (read+write) MSHR misses
system.cpu.dcache.overall_mshr_misses::.switch_cpus.data     76377036                       # number of overall MSHR misses
system.cpu.dcache.overall_mshr_misses::total     76377036                       # number of overall MSHR misses
system.cpu.dcache.demand_mshr_miss_latency::.switch_cpus.data 1242677635216                       # number of demand (read+write) MSHR miss cycles
system.cpu.dcache.demand_mshr_miss_latency::total 1242677635216                       # number of demand (read+write) MSHR miss cycles
system.cpu.dcache.overall_mshr_miss_latency::.switch_cpus.data 1242677635216                       # number of overall MSHR miss cycles
system.cpu.dcache.overall_mshr_miss_latency::total 1242677635216                       # number of overall MSHR miss cycles
system.cpu.dcache.demand_mshr_miss_rate::.switch_cpus.data     0.087771                       # mshr miss rate for demand accesses
system.cpu.dcache.demand_mshr_miss_rate::total     0.087771                       # mshr miss rate for demand accesses
system.cpu.dcache.overall_mshr_miss_rate::.switch_cpus.data     0.087771                       # mshr miss rate for overall accesses
system.cpu.dcache.overall_mshr_miss_rate::total     0.087771                       # mshr miss rate for overall accesses
system.cpu.dcache.demand_avg_mshr_miss_latency::.switch_cpus.data 16270.304535                       # average overall mshr miss latency
system.cpu.dcache.demand_avg_mshr_miss_latency::total 16270.304535                       # average overall mshr miss latency
system.cpu.dcache.overall_avg_mshr_miss_latency::.switch_cpus.data 16270.304535                       # average overall mshr miss latency
system.cpu.dcache.overall_avg_mshr_miss_latency::total 16270.304535                       # average overall mshr miss latency
system.cpu.dcache.replacements               76370234                       # number of replacements
system.cpu.dcache.ReadReq_hits::.switch_cpus.data    681168827                       # number of ReadReq hits
system.cpu.dcache.ReadReq_hits::total       681168827                       # number of ReadReq hits
system.cpu.dcache.ReadReq_misses::.cpu.data            4                       # number of ReadReq misses
system.cpu.dcache.ReadReq_misses::.switch_cpus.data     86164318                       # number of ReadReq misses
system.cpu.dcache.ReadReq_misses::total      86164322                       # number of ReadReq misses
system.cpu.dcache.ReadReq_miss_latency::.switch_cpus.data 1542567714000                       # number of ReadReq miss cycles
system.cpu.dcache.ReadReq_miss_latency::total 1542567714000                       # number of ReadReq miss cycles
system.cpu.dcache.ReadReq_accesses::.cpu.data            4                       # number of ReadReq accesses(hits+misses)
system.cpu.dcache.ReadReq_accesses::.switch_cpus.data    767333145                       # number of ReadReq accesses(hits+misses)
system.cpu.dcache.ReadReq_accesses::total    767333149                       # number of ReadReq accesses(hits+misses)
system.cpu.dcache.ReadReq_miss_rate::.cpu.data            1                       # miss rate for ReadReq accesses
system.cpu.dcache.ReadReq_miss_rate::.switch_cpus.data     0.112291                       # miss rate for ReadReq accesses
system.cpu.dcache.ReadReq_miss_rate::total     0.112291                       # miss rate for ReadReq accesses
system.cpu.dcache.ReadReq_avg_miss_latency::.switch_cpus.data 17902.627791                       # average ReadReq miss latency
system.cpu.dcache.ReadReq_avg_miss_latency::total 17902.626960                       # average ReadReq miss latency
system.cpu.dcache.ReadReq_mshr_hits::.switch_cpus.data     18683956                       # number of ReadReq MSHR hits
system.cpu.dcache.ReadReq_mshr_hits::total     18683956                       # number of ReadReq MSHR hits
system.cpu.dcache.ReadReq_mshr_misses::.switch_cpus.data     67480362                       # number of ReadReq MSHR misses
system.cpu.dcache.ReadReq_mshr_misses::total     67480362                       # number of ReadReq MSHR misses
system.cpu.dcache.ReadReq_mshr_miss_latency::.switch_cpus.data 1128326486000                       # number of ReadReq MSHR miss cycles
system.cpu.dcache.ReadReq_mshr_miss_latency::total 1128326486000                       # number of ReadReq MSHR miss cycles
system.cpu.dcache.ReadReq_mshr_miss_rate::.switch_cpus.data     0.087941                       # mshr miss rate for ReadReq accesses
system.cpu.dcache.ReadReq_mshr_miss_rate::total     0.087941                       # mshr miss rate for ReadReq accesses
system.cpu.dcache.ReadReq_avg_mshr_miss_latency::.switch_cpus.data 16720.812582                       # average ReadReq mshr miss latency
system.cpu.dcache.ReadReq_avg_mshr_miss_latency::total 16720.812582                       # average ReadReq mshr miss latency
system.cpu.dcache.WriteReq_hits::.switch_cpus.data     78040233                       # number of WriteReq hits
system.cpu.dcache.WriteReq_hits::total       78040233                       # number of WriteReq hits
system.cpu.dcache.WriteReq_misses::.switch_cpus.data     24813060                       # number of WriteReq misses
system.cpu.dcache.WriteReq_misses::total     24813060                       # number of WriteReq misses
system.cpu.dcache.WriteReq_miss_latency::.switch_cpus.data 308943097201                       # number of WriteReq miss cycles
system.cpu.dcache.WriteReq_miss_latency::total 308943097201                       # number of WriteReq miss cycles
system.cpu.dcache.WriteReq_accesses::.switch_cpus.data    102853293                       # number of WriteReq accesses(hits+misses)
system.cpu.dcache.WriteReq_accesses::total    102853293                       # number of WriteReq accesses(hits+misses)
system.cpu.dcache.WriteReq_miss_rate::.switch_cpus.data     0.241247                       # miss rate for WriteReq accesses
system.cpu.dcache.WriteReq_miss_rate::total     0.241247                       # miss rate for WriteReq accesses
system.cpu.dcache.WriteReq_avg_miss_latency::.switch_cpus.data 12450.826186                       # average WriteReq miss latency
system.cpu.dcache.WriteReq_avg_miss_latency::total 12450.826186                       # average WriteReq miss latency
system.cpu.dcache.WriteReq_mshr_hits::.switch_cpus.data     15916386                       # number of WriteReq MSHR hits
system.cpu.dcache.WriteReq_mshr_hits::total     15916386                       # number of WriteReq MSHR hits
system.cpu.dcache.WriteReq_mshr_misses::.switch_cpus.data      8896674                       # number of WriteReq MSHR misses
system.cpu.dcache.WriteReq_mshr_misses::total      8896674                       # number of WriteReq MSHR misses
system.cpu.dcache.WriteReq_mshr_miss_latency::.switch_cpus.data 114351149216                       # number of WriteReq MSHR miss cycles
system.cpu.dcache.WriteReq_mshr_miss_latency::total 114351149216                       # number of WriteReq MSHR miss cycles
system.cpu.dcache.WriteReq_mshr_miss_rate::.switch_cpus.data     0.086499                       # mshr miss rate for WriteReq accesses
system.cpu.dcache.WriteReq_mshr_miss_rate::total     0.086499                       # mshr miss rate for WriteReq accesses
system.cpu.dcache.WriteReq_avg_mshr_miss_latency::.switch_cpus.data 12853.247092                       # average WriteReq mshr miss latency
system.cpu.dcache.WriteReq_avg_mshr_miss_latency::total 12853.247092                       # average WriteReq mshr miss latency
system.cpu.dcache.ghosttags.tagsinuse               0                       # Cycle average of tags in use
system.cpu.dcache.ghosttags.total_refs              0                       # Total number of references to valid blocks.
system.cpu.dcache.ghosttags.sampled_refs            0                       # Sample count of references to valid blocks.
system.cpu.dcache.ghosttags.avg_refs              nan                       # Average number of references to valid blocks.
system.cpu.dcache.ghosttags.warmup_cycle            0                       # Cycle when the warmup percentage was hit.
system.cpu.dcache.ghosttags.tag_accesses            0                       # Number of tag accesses
system.cpu.dcache.ghosttags.data_accesses            0                       # Number of data accesses
system.cpu.dcache.ghosttags.repl_invalid            0                       # Number of initial replacements
system.cpu.dcache.ghosttags.repl_valid_tag            0                       # Number of local replacements
system.cpu.dcache.ghosttags.repl_valid_data            0                       # Number of global replacements
system.cpu.dcache.ghosttags.power_state.pwrStateResidencyTicks::UNDEFINED 6237231069000                       # Cumulative time (in ticks) in various power states
system.cpu.dcache.power_state.pwrStateResidencyTicks::UNDEFINED 6237231069000                       # Cumulative time (in ticks) in various power states
system.cpu.dcache.tags.tagsinuse           511.996503                       # Cycle average of tags in use
system.cpu.dcache.tags.total_refs           835597229                       # Total number of references to valid blocks.
system.cpu.dcache.tags.sampled_refs          76370746                       # Sample count of references to valid blocks.
system.cpu.dcache.tags.avg_refs             10.941326                       # Average number of references to valid blocks.
system.cpu.dcache.tags.warmup_cycle      5120492387000                       # Cycle when the warmup percentage was hit.
system.cpu.dcache.tags.occ_blocks::.cpu.data     0.000089                       # Average occupied blocks per requestor
system.cpu.dcache.tags.occ_blocks::.switch_cpus.data   511.996415                       # Average occupied blocks per requestor
system.cpu.dcache.tags.occ_percent::.cpu.data     0.000000                       # Average percentage of cache occupancy
system.cpu.dcache.tags.occ_percent::.switch_cpus.data     0.999993                       # Average percentage of cache occupancy
system.cpu.dcache.tags.occ_percent::total     0.999993                       # Average percentage of cache occupancy
system.cpu.dcache.tags.occ_task_id_blocks::1024          512                       # Occupied blocks per task id
system.cpu.dcache.tags.age_task_id_blocks_1024::0          508                       # Occupied blocks per task id
system.cpu.dcache.tags.age_task_id_blocks_1024::1            3                       # Occupied blocks per task id
system.cpu.dcache.tags.age_task_id_blocks_1024::2            1                       # Occupied blocks per task id
system.cpu.dcache.tags.occ_task_id_percent::1024            1                       # Percentage of cache occupancy per task id
system.cpu.dcache.tags.tag_accesses        7037862282                       # Number of tag accesses
system.cpu.dcache.tags.data_accesses       7037862282                       # Number of data accesses
system.cpu.dcache.tags.repl_invalid                 0                       # Number of initial replacements
system.cpu.dcache.tags.repl_valid_tag               0                       # Number of local replacements
system.cpu.dcache.tags.repl_valid_data              0                       # Number of global replacements
system.cpu.dcache.tags.power_state.pwrStateResidencyTicks::UNDEFINED 6237231069000                       # Cumulative time (in ticks) in various power states
system.cpu.dtb.instHits                             0                       # ITB inst hits
system.cpu.dtb.instMisses                           0                       # ITB inst misses
system.cpu.dtb.readHits                             0                       # DTB read hits
system.cpu.dtb.readMisses                           0                       # DTB read misses
system.cpu.dtb.writeHits                            0                       # DTB write hits
system.cpu.dtb.writeMisses                          0                       # DTB write misses
system.cpu.dtb.inserts                              0                       # Number of times an entry is inserted into the TLB
system.cpu.dtb.flushTlb                             2                       # Number of times complete TLB was flushed
system.cpu.dtb.flushTlbMva                          0                       # Number of times TLB was flushed by MVA
system.cpu.dtb.flushTlbMvaAsid                      0                       # Number of times TLB was flushed by MVA & ASID
system.cpu.dtb.flushTlbAsid                         0                       # Number of times TLB was flushed by ASID
system.cpu.dtb.flushedEntries                       0                       # Number of entries that have been flushed from TLB
system.cpu.dtb.alignFaults                          0                       # Number of TLB faults due to alignment restrictions
system.cpu.dtb.prefetchFaults                       0                       # Number of TLB faults due to prefetch
system.cpu.dtb.domainFaults                         0                       # Number of TLB faults due to domain restrictions
system.cpu.dtb.permsFaults                          0                       # Number of TLB faults due to permissions restrictions
system.cpu.dtb.readAccesses                         0                       # DTB read accesses
system.cpu.dtb.writeAccesses                        0                       # DTB write accesses
system.cpu.dtb.instAccesses                         0                       # ITB inst accesses
system.cpu.dtb.hits                                 0                       # Total TLB (inst and data) hits
system.cpu.dtb.misses                               0                       # Total TLB (inst and data) misses
system.cpu.dtb.accesses                             0                       # Total TLB (inst and data) accesses
system.cpu.dtb.stage2_mmu.stage2_tlb.instHits            0                       # ITB inst hits
system.cpu.dtb.stage2_mmu.stage2_tlb.instMisses            0                       # ITB inst misses
system.cpu.dtb.stage2_mmu.stage2_tlb.readHits            0                       # DTB read hits
system.cpu.dtb.stage2_mmu.stage2_tlb.readMisses            0                       # DTB read misses
system.cpu.dtb.stage2_mmu.stage2_tlb.writeHits            0                       # DTB write hits
system.cpu.dtb.stage2_mmu.stage2_tlb.writeMisses            0                       # DTB write misses
system.cpu.dtb.stage2_mmu.stage2_tlb.inserts            0                       # Number of times an entry is inserted into the TLB
system.cpu.dtb.stage2_mmu.stage2_tlb.flushTlb            0                       # Number of times complete TLB was flushed
system.cpu.dtb.stage2_mmu.stage2_tlb.flushTlbMva            0                       # Number of times TLB was flushed by MVA
system.cpu.dtb.stage2_mmu.stage2_tlb.flushTlbMvaAsid            0                       # Number of times TLB was flushed by MVA & ASID
system.cpu.dtb.stage2_mmu.stage2_tlb.flushTlbAsid            0                       # Number of times TLB was flushed by ASID
system.cpu.dtb.stage2_mmu.stage2_tlb.flushedEntries            0                       # Number of entries that have been flushed from TLB
system.cpu.dtb.stage2_mmu.stage2_tlb.alignFaults            0                       # Number of TLB faults due to alignment restrictions
system.cpu.dtb.stage2_mmu.stage2_tlb.prefetchFaults            0                       # Number of TLB faults due to prefetch
system.cpu.dtb.stage2_mmu.stage2_tlb.domainFaults            0                       # Number of TLB faults due to domain restrictions
system.cpu.dtb.stage2_mmu.stage2_tlb.permsFaults            0                       # Number of TLB faults due to permissions restrictions
system.cpu.dtb.stage2_mmu.stage2_tlb.readAccesses            0                       # DTB read accesses
system.cpu.dtb.stage2_mmu.stage2_tlb.writeAccesses            0                       # DTB write accesses
system.cpu.dtb.stage2_mmu.stage2_tlb.instAccesses            0                       # ITB inst accesses
system.cpu.dtb.stage2_mmu.stage2_tlb.hits            0                       # Total TLB (inst and data) hits
system.cpu.dtb.stage2_mmu.stage2_tlb.misses            0                       # Total TLB (inst and data) misses
system.cpu.dtb.stage2_mmu.stage2_tlb.accesses            0                       # Total TLB (inst and data) accesses
system.cpu.dtb.stage2_mmu.stage2_tlb.walker.walks            0                       # Table walker walks requested
system.cpu.dtb.stage2_mmu.stage2_tlb.walker.requestOrigin_Requested::Data            0                       # Table walker requests started/completed, data/inst
system.cpu.dtb.stage2_mmu.stage2_tlb.walker.requestOrigin_Requested::Inst            0                       # Table walker requests started/completed, data/inst
system.cpu.dtb.stage2_mmu.stage2_tlb.walker.requestOrigin_Requested::total            0                       # Table walker requests started/completed, data/inst
system.cpu.dtb.stage2_mmu.stage2_tlb.walker.requestOrigin_Completed::Data            0                       # Table walker requests started/completed, data/inst
system.cpu.dtb.stage2_mmu.stage2_tlb.walker.requestOrigin_Completed::Inst            0                       # Table walker requests started/completed, data/inst
system.cpu.dtb.stage2_mmu.stage2_tlb.walker.requestOrigin_Completed::total            0                       # Table walker requests started/completed, data/inst
system.cpu.dtb.stage2_mmu.stage2_tlb.walker.requestOrigin::total            0                       # Table walker requests started/completed, data/inst
system.cpu.dtb.stage2_mmu.stage2_tlb.walker.power_state.pwrStateResidencyTicks::UNDEFINED 6237231069000                       # Cumulative time (in ticks) in various power states
system.cpu.dtb.walker.walks                         0                       # Table walker walks requested
system.cpu.dtb.walker.requestOrigin_Requested::Data            0                       # Table walker requests started/completed, data/inst
system.cpu.dtb.walker.requestOrigin_Requested::Inst            0                       # Table walker requests started/completed, data/inst
system.cpu.dtb.walker.requestOrigin_Requested::total            0                       # Table walker requests started/completed, data/inst
system.cpu.dtb.walker.requestOrigin_Completed::Data            0                       # Table walker requests started/completed, data/inst
system.cpu.dtb.walker.requestOrigin_Completed::Inst            0                       # Table walker requests started/completed, data/inst
system.cpu.dtb.walker.requestOrigin_Completed::total            0                       # Table walker requests started/completed, data/inst
system.cpu.dtb.walker.requestOrigin::total            0                       # Table walker requests started/completed, data/inst
system.cpu.dtb.walker.power_state.pwrStateResidencyTicks::UNDEFINED 6237231069000                       # Cumulative time (in ticks) in various power states
system.cpu.icache.demand_hits::.cpu.inst           14                       # number of demand (read+write) hits
system.cpu.icache.demand_hits::.switch_cpus.inst    807122785                       # number of demand (read+write) hits
system.cpu.icache.demand_hits::total        807122799                       # number of demand (read+write) hits
system.cpu.icache.overall_hits::.cpu.inst           14                       # number of overall hits
system.cpu.icache.overall_hits::.switch_cpus.inst    807122785                       # number of overall hits
system.cpu.icache.overall_hits::total       807122799                       # number of overall hits
system.cpu.icache.demand_misses::.cpu.inst            6                       # number of demand (read+write) misses
system.cpu.icache.demand_misses::.switch_cpus.inst         6443                       # number of demand (read+write) misses
system.cpu.icache.demand_misses::total           6449                       # number of demand (read+write) misses
system.cpu.icache.overall_misses::.cpu.inst            6                       # number of overall misses
system.cpu.icache.overall_misses::.switch_cpus.inst         6443                       # number of overall misses
system.cpu.icache.overall_misses::total          6449                       # number of overall misses
system.cpu.icache.demand_miss_latency::.switch_cpus.inst     79715000                       # number of demand (read+write) miss cycles
system.cpu.icache.demand_miss_latency::total     79715000                       # number of demand (read+write) miss cycles
system.cpu.icache.overall_miss_latency::.switch_cpus.inst     79715000                       # number of overall miss cycles
system.cpu.icache.overall_miss_latency::total     79715000                       # number of overall miss cycles
system.cpu.icache.demand_accesses::.cpu.inst           20                       # number of demand (read+write) accesses
system.cpu.icache.demand_accesses::.switch_cpus.inst    807129228                       # number of demand (read+write) accesses
system.cpu.icache.demand_accesses::total    807129248                       # number of demand (read+write) accesses
system.cpu.icache.overall_accesses::.cpu.inst           20                       # number of overall (read+write) accesses
system.cpu.icache.overall_accesses::.switch_cpus.inst    807129228                       # number of overall (read+write) accesses
system.cpu.icache.overall_accesses::total    807129248                       # number of overall (read+write) accesses
system.cpu.icache.demand_miss_rate::.cpu.inst     0.300000                       # miss rate for demand accesses
system.cpu.icache.demand_miss_rate::.switch_cpus.inst     0.000008                       # miss rate for demand accesses
system.cpu.icache.demand_miss_rate::total     0.000008                       # miss rate for demand accesses
system.cpu.icache.overall_miss_rate::.cpu.inst     0.300000                       # miss rate for overall accesses
system.cpu.icache.overall_miss_rate::.switch_cpus.inst     0.000008                       # miss rate for overall accesses
system.cpu.icache.overall_miss_rate::total     0.000008                       # miss rate for overall accesses
system.cpu.icache.demand_avg_miss_latency::.switch_cpus.inst 12372.342077                       # average overall miss latency
system.cpu.icache.demand_avg_miss_latency::total 12360.831137                       # average overall miss latency
system.cpu.icache.overall_avg_miss_latency::.switch_cpus.inst 12372.342077                       # average overall miss latency
system.cpu.icache.overall_avg_miss_latency::total 12360.831137                       # average overall miss latency
system.cpu.icache.blocked_cycles::no_mshrs            0                       # number of cycles access was blocked
system.cpu.icache.blocked_cycles::no_targets            0                       # number of cycles access was blocked
system.cpu.icache.blocked::no_mshrs                 0                       # number of cycles access was blocked
system.cpu.icache.blocked::no_targets               0                       # number of cycles access was blocked
system.cpu.icache.avg_blocked_cycles::no_mshrs          nan                       # average number of cycles each access was blocked
system.cpu.icache.avg_blocked_cycles::no_targets          nan                       # average number of cycles each access was blocked
system.cpu.icache.ghost_timestamp_misses            0                       # number of times timestamp policy causes a block to be inaccessible
system.cpu.icache.ghost_commits                     0                       # number of cache lines moved from ghost to main
system.cpu.icache.same_leapfrogs                    0                       # number of times leapfrogging occurs with a shared MSHR request
system.cpu.icache.demand_mshr_hits::.switch_cpus.inst           57                       # number of demand (read+write) MSHR hits
system.cpu.icache.demand_mshr_hits::total           57                       # number of demand (read+write) MSHR hits
system.cpu.icache.overall_mshr_hits::.switch_cpus.inst           57                       # number of overall MSHR hits
system.cpu.icache.overall_mshr_hits::total           57                       # number of overall MSHR hits
system.cpu.icache.demand_mshr_misses::.switch_cpus.inst         6386                       # number of demand (read+write) MSHR misses
system.cpu.icache.demand_mshr_misses::total         6386                       # number of demand (read+write) MSHR misses
system.cpu.icache.overall_mshr_misses::.switch_cpus.inst         6386                       # number of overall MSHR misses
system.cpu.icache.overall_mshr_misses::total         6386                       # number of overall MSHR misses
system.cpu.icache.demand_mshr_miss_latency::.switch_cpus.inst     69983500                       # number of demand (read+write) MSHR miss cycles
system.cpu.icache.demand_mshr_miss_latency::total     69983500                       # number of demand (read+write) MSHR miss cycles
system.cpu.icache.overall_mshr_miss_latency::.switch_cpus.inst     69983500                       # number of overall MSHR miss cycles
system.cpu.icache.overall_mshr_miss_latency::total     69983500                       # number of overall MSHR miss cycles
system.cpu.icache.demand_mshr_miss_rate::.switch_cpus.inst     0.000008                       # mshr miss rate for demand accesses
system.cpu.icache.demand_mshr_miss_rate::total     0.000008                       # mshr miss rate for demand accesses
system.cpu.icache.overall_mshr_miss_rate::.switch_cpus.inst     0.000008                       # mshr miss rate for overall accesses
system.cpu.icache.overall_mshr_miss_rate::total     0.000008                       # mshr miss rate for overall accesses
system.cpu.icache.demand_avg_mshr_miss_latency::.switch_cpus.inst 10958.894457                       # average overall mshr miss latency
system.cpu.icache.demand_avg_mshr_miss_latency::total 10958.894457                       # average overall mshr miss latency
system.cpu.icache.overall_avg_mshr_miss_latency::.switch_cpus.inst 10958.894457                       # average overall mshr miss latency
system.cpu.icache.overall_avg_mshr_miss_latency::total 10958.894457                       # average overall mshr miss latency
system.cpu.icache.replacements                      0                       # number of replacements
system.cpu.icache.ReadReq_hits::.cpu.inst           14                       # number of ReadReq hits
system.cpu.icache.ReadReq_hits::.switch_cpus.inst    807122785                       # number of ReadReq hits
system.cpu.icache.ReadReq_hits::total       807122799                       # number of ReadReq hits
system.cpu.icache.ReadReq_misses::.cpu.inst            6                       # number of ReadReq misses
system.cpu.icache.ReadReq_misses::.switch_cpus.inst         6443                       # number of ReadReq misses
system.cpu.icache.ReadReq_misses::total          6449                       # number of ReadReq misses
system.cpu.icache.ReadReq_miss_latency::.switch_cpus.inst     79715000                       # number of ReadReq miss cycles
system.cpu.icache.ReadReq_miss_latency::total     79715000                       # number of ReadReq miss cycles
system.cpu.icache.ReadReq_accesses::.cpu.inst           20                       # number of ReadReq accesses(hits+misses)
system.cpu.icache.ReadReq_accesses::.switch_cpus.inst    807129228                       # number of ReadReq accesses(hits+misses)
system.cpu.icache.ReadReq_accesses::total    807129248                       # number of ReadReq accesses(hits+misses)
system.cpu.icache.ReadReq_miss_rate::.cpu.inst     0.300000                       # miss rate for ReadReq accesses
system.cpu.icache.ReadReq_miss_rate::.switch_cpus.inst     0.000008                       # miss rate for ReadReq accesses
system.cpu.icache.ReadReq_miss_rate::total     0.000008                       # miss rate for ReadReq accesses
system.cpu.icache.ReadReq_avg_miss_latency::.switch_cpus.inst 12372.342077                       # average ReadReq miss latency
system.cpu.icache.ReadReq_avg_miss_latency::total 12360.831137                       # average ReadReq miss latency
system.cpu.icache.ReadReq_mshr_hits::.switch_cpus.inst           57                       # number of ReadReq MSHR hits
system.cpu.icache.ReadReq_mshr_hits::total           57                       # number of ReadReq MSHR hits
system.cpu.icache.ReadReq_mshr_misses::.switch_cpus.inst         6386                       # number of ReadReq MSHR misses
system.cpu.icache.ReadReq_mshr_misses::total         6386                       # number of ReadReq MSHR misses
system.cpu.icache.ReadReq_mshr_miss_latency::.switch_cpus.inst     69983500                       # number of ReadReq MSHR miss cycles
system.cpu.icache.ReadReq_mshr_miss_latency::total     69983500                       # number of ReadReq MSHR miss cycles
system.cpu.icache.ReadReq_mshr_miss_rate::.switch_cpus.inst     0.000008                       # mshr miss rate for ReadReq accesses
system.cpu.icache.ReadReq_mshr_miss_rate::total     0.000008                       # mshr miss rate for ReadReq accesses
system.cpu.icache.ReadReq_avg_mshr_miss_latency::.switch_cpus.inst 10958.894457                       # average ReadReq mshr miss latency
system.cpu.icache.ReadReq_avg_mshr_miss_latency::total 10958.894457                       # average ReadReq mshr miss latency
system.cpu.icache.ghosttags.tagsinuse               0                       # Cycle average of tags in use
system.cpu.icache.ghosttags.total_refs              0                       # Total number of references to valid blocks.
system.cpu.icache.ghosttags.sampled_refs            0                       # Sample count of references to valid blocks.
system.cpu.icache.ghosttags.avg_refs              nan                       # Average number of references to valid blocks.
system.cpu.icache.ghosttags.warmup_cycle            0                       # Cycle when the warmup percentage was hit.
system.cpu.icache.ghosttags.tag_accesses            0                       # Number of tag accesses
system.cpu.icache.ghosttags.data_accesses            0                       # Number of data accesses
system.cpu.icache.ghosttags.repl_invalid            0                       # Number of initial replacements
system.cpu.icache.ghosttags.repl_valid_tag            0                       # Number of local replacements
system.cpu.icache.ghosttags.repl_valid_data            0                       # Number of global replacements
system.cpu.icache.ghosttags.power_state.pwrStateResidencyTicks::UNDEFINED 6237231069000                       # Cumulative time (in ticks) in various power states
system.cpu.icache.power_state.pwrStateResidencyTicks::UNDEFINED 6237231069000                       # Cumulative time (in ticks) in various power states
system.cpu.icache.tags.tagsinuse            89.776928                       # Cycle average of tags in use
system.cpu.icache.tags.total_refs           807129191                       # Total number of references to valid blocks.
system.cpu.icache.tags.sampled_refs              6392                       # Sample count of references to valid blocks.
system.cpu.icache.tags.avg_refs          126271.775814                       # Average number of references to valid blocks.
system.cpu.icache.tags.warmup_cycle      5120492385500                       # Cycle when the warmup percentage was hit.
system.cpu.icache.tags.occ_blocks::.cpu.inst     6.000000                       # Average occupied blocks per requestor
system.cpu.icache.tags.occ_blocks::.switch_cpus.inst    83.776928                       # Average occupied blocks per requestor
system.cpu.icache.tags.occ_percent::.cpu.inst     0.011719                       # Average percentage of cache occupancy
system.cpu.icache.tags.occ_percent::.switch_cpus.inst     0.163627                       # Average percentage of cache occupancy
system.cpu.icache.tags.occ_percent::total     0.175346                       # Average percentage of cache occupancy
system.cpu.icache.tags.occ_task_id_blocks::1024           98                       # Occupied blocks per task id
system.cpu.icache.tags.age_task_id_blocks_1024::2            2                       # Occupied blocks per task id
system.cpu.icache.tags.age_task_id_blocks_1024::3            1                       # Occupied blocks per task id
system.cpu.icache.tags.age_task_id_blocks_1024::4           95                       # Occupied blocks per task id
system.cpu.icache.tags.occ_task_id_percent::1024     0.191406                       # Percentage of cache occupancy per task id
system.cpu.icache.tags.tag_accesses        6457040376                       # Number of tag accesses
system.cpu.icache.tags.data_accesses       6457040376                       # Number of data accesses
system.cpu.icache.tags.repl_invalid                 0                       # Number of initial replacements
system.cpu.icache.tags.repl_valid_tag               0                       # Number of local replacements
system.cpu.icache.tags.repl_valid_data              0                       # Number of global replacements
system.cpu.icache.tags.power_state.pwrStateResidencyTicks::UNDEFINED 6237231069000                       # Cumulative time (in ticks) in various power states
system.cpu.itb.instHits                             0                       # ITB inst hits
system.cpu.itb.instMisses                           0                       # ITB inst misses
system.cpu.itb.readHits                             0                       # DTB read hits
system.cpu.itb.readMisses                           0                       # DTB read misses
system.cpu.itb.writeHits                            0                       # DTB write hits
system.cpu.itb.writeMisses                          0                       # DTB write misses
system.cpu.itb.inserts                              0                       # Number of times an entry is inserted into the TLB
system.cpu.itb.flushTlb                             2                       # Number of times complete TLB was flushed
system.cpu.itb.flushTlbMva                          0                       # Number of times TLB was flushed by MVA
system.cpu.itb.flushTlbMvaAsid                      0                       # Number of times TLB was flushed by MVA & ASID
system.cpu.itb.flushTlbAsid                         0                       # Number of times TLB was flushed by ASID
system.cpu.itb.flushedEntries                       0                       # Number of entries that have been flushed from TLB
system.cpu.itb.alignFaults                          0                       # Number of TLB faults due to alignment restrictions
system.cpu.itb.prefetchFaults                       0                       # Number of TLB faults due to prefetch
system.cpu.itb.domainFaults                         0                       # Number of TLB faults due to domain restrictions
system.cpu.itb.permsFaults                          0                       # Number of TLB faults due to permissions restrictions
system.cpu.itb.readAccesses                         0                       # DTB read accesses
system.cpu.itb.writeAccesses                        0                       # DTB write accesses
system.cpu.itb.instAccesses                         0                       # ITB inst accesses
system.cpu.itb.hits                                 0                       # Total TLB (inst and data) hits
system.cpu.itb.misses                               0                       # Total TLB (inst and data) misses
system.cpu.itb.accesses                             0                       # Total TLB (inst and data) accesses
system.cpu.itb.stage2_mmu.stage2_tlb.instHits            0                       # ITB inst hits
system.cpu.itb.stage2_mmu.stage2_tlb.instMisses            0                       # ITB inst misses
system.cpu.itb.stage2_mmu.stage2_tlb.readHits            0                       # DTB read hits
system.cpu.itb.stage2_mmu.stage2_tlb.readMisses            0                       # DTB read misses
system.cpu.itb.stage2_mmu.stage2_tlb.writeHits            0                       # DTB write hits
system.cpu.itb.stage2_mmu.stage2_tlb.writeMisses            0                       # DTB write misses
system.cpu.itb.stage2_mmu.stage2_tlb.inserts            0                       # Number of times an entry is inserted into the TLB
system.cpu.itb.stage2_mmu.stage2_tlb.flushTlb            0                       # Number of times complete TLB was flushed
system.cpu.itb.stage2_mmu.stage2_tlb.flushTlbMva            0                       # Number of times TLB was flushed by MVA
system.cpu.itb.stage2_mmu.stage2_tlb.flushTlbMvaAsid            0                       # Number of times TLB was flushed by MVA & ASID
system.cpu.itb.stage2_mmu.stage2_tlb.flushTlbAsid            0                       # Number of times TLB was flushed by ASID
system.cpu.itb.stage2_mmu.stage2_tlb.flushedEntries            0                       # Number of entries that have been flushed from TLB
system.cpu.itb.stage2_mmu.stage2_tlb.alignFaults            0                       # Number of TLB faults due to alignment restrictions
system.cpu.itb.stage2_mmu.stage2_tlb.prefetchFaults            0                       # Number of TLB faults due to prefetch
system.cpu.itb.stage2_mmu.stage2_tlb.domainFaults            0                       # Number of TLB faults due to domain restrictions
system.cpu.itb.stage2_mmu.stage2_tlb.permsFaults            0                       # Number of TLB faults due to permissions restrictions
system.cpu.itb.stage2_mmu.stage2_tlb.readAccesses            0                       # DTB read accesses
system.cpu.itb.stage2_mmu.stage2_tlb.writeAccesses            0                       # DTB write accesses
system.cpu.itb.stage2_mmu.stage2_tlb.instAccesses            0                       # ITB inst accesses
system.cpu.itb.stage2_mmu.stage2_tlb.hits            0                       # Total TLB (inst and data) hits
system.cpu.itb.stage2_mmu.stage2_tlb.misses            0                       # Total TLB (inst and data) misses
system.cpu.itb.stage2_mmu.stage2_tlb.accesses            0                       # Total TLB (inst and data) accesses
system.cpu.itb.stage2_mmu.stage2_tlb.walker.walks            0                       # Table walker walks requested
system.cpu.itb.stage2_mmu.stage2_tlb.walker.requestOrigin_Requested::Data            0                       # Table walker requests started/completed, data/inst
[...]
system.switch_cpus.fetch.branches          1081052635                       # Number of branches that fetch encountered
system.switch_cpus.fetch.predictedBranches    694555574                       # Number of branches that fetch has predicted taken
system.switch_cpus.fetch.cycles            1358974335                       # Number of cycles fetch has run and was not squashing or blocked
system.switch_cpus.fetch.squashCycles        95792062                       # Number of cycles fetch has spent squashing
system.switch_cpus.fetch.miscStallCycles           12                       # Number of cycles fetch has spent waiting on interrupts,or bad addresses, or out of MSHRs
system.switch_cpus.fetch.pendingTrapStallCycles           97                       # Number of stall cycles due to pending traps
system.switch_cpus.fetch.cacheLines         807129228                       # Number of cache lines fetched
system.switch_cpus.fetch.icacheSquashes      22591625                       # Number of outstanding Icache misses that were squashed
system.switch_cpus.fetch.nisnDist::samples   2233472248                       # Number of instructions fetched each cycle (Total)
system.switch_cpus.fetch.nisnDist::mean      1.690925                       # Number of instructions fetched each cycle (Total)
system.switch_cpus.fetch.nisnDist::stdev     2.534433                       # Number of instructions fetched each cycle (Total)
system.switch_cpus.fetch.nisnDist::underflows            0      0.00%      0.00% # Number of instructions fetched each cycle (Total)
system.switch_cpus.fetch.nisnDist::0       1282176359     57.41%     57.41% # Number of instructions fetched each cycle (Total)
system.switch_cpus.fetch.nisnDist::1        141948438      6.36%     63.76% # Number of instructions fetched each cycle (Total)
system.switch_cpus.fetch.nisnDist::2        200587267      8.98%     72.74% # Number of instructions fetched each cycle (Total)
system.switch_cpus.fetch.nisnDist::3        174542674      7.81%     80.56% # Number of instructions fetched each cycle (Total)
system.switch_cpus.fetch.nisnDist::4        136401822      6.11%     86.67% # Number of instructions fetched each cycle (Total)
system.switch_cpus.fetch.nisnDist::5         12970317      0.58%     87.25% # Number of instructions fetched each cycle (Total)
system.switch_cpus.fetch.nisnDist::6         85249975      3.82%     91.06% # Number of instructions fetched each cycle (Total)
system.switch_cpus.fetch.nisnDist::7          8839787      0.40%     91.46% # Number of instructions fetched each cycle (Total)
system.switch_cpus.fetch.nisnDist::8        190755609      8.54%    100.00% # Number of instructions fetched each cycle (Total)
system.switch_cpus.fetch.nisnDist::overflows            0      0.00%    100.00% # Number of instructions fetched each cycle (Total)
system.switch_cpus.fetch.nisnDist::min_value            0                       # Number of instructions fetched each cycle (Total)
system.switch_cpus.fetch.nisnDist::max_value            8                       # Number of instructions fetched each cycle (Total)
system.switch_cpus.fetch.nisnDist::total   2233472248                       # Number of instructions fetched each cycle (Total)
system.switch_cpus.fetch.branchRate          0.484022                       # Number of branch fetches per cycle
system.switch_cpus.fetch.rate                1.671488                       # Number of inst fetches per cycle
system.switch_cpus.itb.instHits                     0                       # ITB inst hits
system.switch_cpus.itb.instMisses                   0                       # ITB inst misses
system.switch_cpus.itb.readHits                     0                       # DTB read hits
system.switch_cpus.itb.readMisses                   0                       # DTB read misses
system.switch_cpus.itb.writeHits                    0                       # DTB write hits
system.switch_cpus.itb.writeMisses                  0                       # DTB write misses
system.switch_cpus.itb.inserts                      0                       # Number of times an entry is inserted into the TLB
system.switch_cpus.itb.flushTlb                     0                       # Number of times complete TLB was flushed
system.switch_cpus.itb.flushTlbMva                  0                       # Number of times TLB was flushed by MVA
system.switch_cpus.itb.flushTlbMvaAsid              0                       # Number of times TLB was flushed by MVA & ASID
system.switch_cpus.itb.flushTlbAsid                 0                       # Number of times TLB was flushed by ASID
system.switch_cpus.itb.flushedEntries               0                       # Number of entries that have been flushed from TLB
system.switch_cpus.itb.alignFaults                  0                       # Number of TLB faults due to alignment restrictions
system.switch_cpus.itb.prefetchFaults               0                       # Number of TLB faults due to prefetch
system.switch_cpus.itb.domainFaults                 0                       # Number of TLB faults due to domain restrictions
system.switch_cpus.itb.permsFaults                  0                       # Number of TLB faults due to permissions restrictions
system.switch_cpus.itb.readAccesses                 0                       # DTB read accesses
system.switch_cpus.itb.writeAccesses                0                       # DTB write accesses
system.switch_cpus.itb.instAccesses                 0                       # ITB inst accesses
system.switch_cpus.itb.hits                         0                       # Total TLB (inst and data) hits
system.switch_cpus.itb.misses                       0                       # Total TLB (inst and data) misses
system.switch_cpus.itb.accesses                     0                       # Total TLB (inst and data) accesses
system.switch_cpus.itb.stage2_mmu.stage2_tlb.instHits            0                       # ITB inst hits
system.switch_cpus.itb.stage2_mmu.stage2_tlb.instMisses            0                       # ITB inst misses
system.switch_cpus.itb.stage2_mmu.stage2_tlb.readHits            0                       # DTB read hits
system.switch_cpus.itb.stage2_mmu.stage2_tlb.readMisses            0                       # DTB read misses
system.switch_cpus.itb.stage2_mmu.stage2_tlb.writeHits            0                       # DTB write hits
system.switch_cpus.itb.stage2_mmu.stage2_tlb.writeMisses            0                       # DTB write misses
system.switch_cpus.itb.stage2_mmu.stage2_tlb.inserts            0                       # Number of times an entry is inserted into the TLB
system.switch_cpus.itb.stage2_mmu.stage2_tlb.flushTlb            0                       # Number of times complete TLB was flushed
system.switch_cpus.itb.stage2_mmu.stage2_tlb.flushTlbMva            0                       # Number of times TLB was flushed by MVA
system.switch_cpus.itb.stage2_mmu.stage2_tlb.flushTlbMvaAsid            0                       # Number of times TLB was flushed by MVA & ASID
system.switch_cpus.itb.stage2_mmu.stage2_tlb.flushTlbAsid            0                       # Number of times TLB was flushed by ASID
system.switch_cpus.itb.stage2_mmu.stage2_tlb.flushedEntries            0                       # Number of entries that have been flushed from TLB
system.switch_cpus.itb.stage2_mmu.stage2_tlb.alignFaults            0                       # Number of TLB faults due to alignment restrictions
system.switch_cpus.itb.stage2_mmu.stage2_tlb.prefetchFaults            0                       # Number of TLB faults due to prefetch
system.switch_cpus.itb.stage2_mmu.stage2_tlb.domainFaults            0                       # Number of TLB faults due to domain restrictions
system.switch_cpus.itb.stage2_mmu.stage2_tlb.permsFaults            0                       # Number of TLB faults due to permissions restrictions
system.switch_cpus.itb.stage2_mmu.stage2_tlb.readAccesses            0                       # DTB read accesses
system.switch_cpus.itb.stage2_mmu.stage2_tlb.writeAccesses            0                       # DTB write accesses
system.switch_cpus.itb.stage2_mmu.stage2_tlb.instAccesses            0                       # ITB inst accesses
system.switch_cpus.itb.stage2_mmu.stage2_tlb.hits            0                       # Total TLB (inst and data) hits
system.switch_cpus.itb.stage2_mmu.stage2_tlb.misses            0                       # Total TLB (inst and data) misses
system.switch_cpus.itb.stage2_mmu.stage2_tlb.accesses            0                       # Total TLB (inst and data) accesses
system.switch_cpus.itb.stage2_mmu.stage2_tlb.walker.walks            0                       # Table walker walks requested
system.switch_cpus.itb.stage2_mmu.stage2_tlb.walker.requestOrigin_Requested::Data            0                       # Table walker requests started/completed, data/inst
system.switch_cpus.itb.stage2_mmu.stage2_tlb.walker.requestOrigin_Requested::Inst            0                       # Table walker requests started/completed, data/inst
system.switch_cpus.itb.stage2_mmu.stage2_tlb.walker.requestOrigin_Requested::total            0                       # Table walker requests started/completed, data/inst
system.switch_cpus.itb.stage2_mmu.stage2_tlb.walker.requestOrigin_Completed::Data            0                       # Table walker requests started/completed, data/inst
system.switch_cpus.itb.stage2_mmu.stage2_tlb.walker.requestOrigin_Completed::Inst            0                       # Table walker requests started/completed, data/inst
system.switch_cpus.itb.stage2_mmu.stage2_tlb.walker.requestOrigin_Completed::total            0                       # Table walker requests started/completed, data/inst
system.switch_cpus.itb.stage2_mmu.stage2_tlb.walker.requestOrigin::total            0                       # Table walker requests started/completed, data/inst
system.switch_cpus.itb.stage2_mmu.stage2_tlb.walker.power_state.pwrStateResidencyTicks::UNDEFINED 6237231069000                       # Cumulative time (in ticks) in various power states
system.switch_cpus.itb.walker.walks                 0                       # Table walker walks requested
system.switch_cpus.itb.walker.requestOrigin_Requested::Data            0                       # Table walker requests started/completed, data/inst
system.switch_cpus.itb.walker.requestOrigin_Requested::Inst            0                       # Table walker requests started/completed, data/inst
system.switch_cpus.itb.walker.requestOrigin_Requested::total            0                       # Table walker requests started/completed, data/inst
system.switch_cpus.itb.walker.requestOrigin_Completed::Data            0                       # Table walker requests started/completed, data/inst
system.switch_cpus.itb.walker.requestOrigin_Completed::Inst            0                       # Table walker requests started/completed, data/inst
system.switch_cpus.itb.walker.requestOrigin_Completed::total            0                       # Table walker requests started/completed, data/inst
system.switch_cpus.itb.walker.requestOrigin::total            0                       # Table walker requests started/completed, data/inst
system.switch_cpus.itb.walker.power_state.pwrStateResidencyTicks::UNDEFINED 6237231069000                       # Cumulative time (in ticks) in various power states
system.switch_cpus.lsq0.forwLoads            44740662                       # Number of loads that had data forwarded from stores
system.switch_cpus.lsq0.squashedLoads       339968628                       # Number of loads squashed
system.switch_cpus.lsq0.ignoredResponses       118884                       # Number of memory responses ignored because the instruction is squashed
system.switch_cpus.lsq0.memOrderViolation        22832                       # Number of memory ordering violations
system.switch_cpus.lsq0.squashedStores       46467521                       # Number of stores squashed
system.switch_cpus.lsq0.rescheduledLoads        25805                       # Number of loads that were rescheduled
system.switch_cpus.lsq0.blockedByCache       25783855                       # Number of times an access to memory failed due to the cache being blocked
system.switch_cpus.power_state.pwrStateResidencyTicks::OFF 1116738684000                       # Cumulative time (in ticks) in various power states
system.switch_cpus.rename.squashCycles       47895992                       # Number of cycles rename is squashing
system.switch_cpus.rename.idleCycles        754500395                       # Number of cycles rename is idle
system.switch_cpus.rename.blockCycles       310342224                       # Number of cycles rename is blocking
system.switch_cpus.rename.serializeStallCycles            0                       # count of cycles rename stalledfor serializing inst
system.switch_cpus.rename.runCycles         829889390                       # Number of cycles rename is running
system.switch_cpus.rename.unblockCycles     290844246                       # Number of cycles rename is unblocking
system.switch_cpus.rename.renamedInsts     3489735614                       # Number of instructions processed by rename
system.switch_cpus.rename.ROBFullEvents         77643                       # Number of times rename has blocked due to ROB full
system.switch_cpus.rename.IQFullEvents       28335288                       # Number of times rename has blocked due to IQ full
system.switch_cpus.rename.LQFullEvents      280032855                       # Number of times rename has blocked due to LQ full
system.switch_cpus.rename.SQFullEvents          55759                       # Number of times rename has blocked due to SQ full
system.switch_cpus.rename.renamedOperands   3956684333                       # Number of destination operands rename has renamed
system.switch_cpus.rename.lookups          5762537672                       # Number of register rename lookups that rename has made
system.switch_cpus.rename.intLookups       3788793785                       # Number of integer rename lookups
system.switch_cpus.rename.vecLookups              212                       # Number of vector rename lookups
system.switch_cpus.rename.committedMaps    2331580070                       # Number of HB maps that are committed
system.switch_cpus.rename.undoneMaps       1625104250                       # Number of HB maps that are undone due to squashing
system.switch_cpus.rename.serializing               0                       # count of serializing insts renamed
system.switch_cpus.rename.tempSerializing            0                       # count of temporary serializing insts renamed
system.switch_cpus.rename.skidInsts         116113009                       # count of insts added to the skid buffer
system.switch_cpus.rob.reads               5225900882                       # The number of ROB reads
system.switch_cpus.rob.writes              6761756192                       # The number of ROB writes
system.switch_cpus.thread0.numInsts        2000000003                       # Number of Instructions committed
system.switch_cpus.thread0.numOps          2030196161                       # Number of Ops committed
system.switch_cpus.thread0.numMemRefs               0                       # Number of Memory References
system.tol2bus.trans_dist::ReadResp          67486709                       # Transaction distribution
system.tol2bus.trans_dist::WritebackDirty     43514633                       # Transaction distribution
system.tol2bus.trans_dist::WritebackClean     32866309                       # Transaction distribution
system.tol2bus.trans_dist::CleanEvict        10779015                       # Transaction distribution
system.tol2bus.trans_dist::HardPFReq         11734359                       # Transaction distribution
system.tol2bus.trans_dist::UpgradeReq            6294                       # Transaction distribution
system.tol2bus.trans_dist::UpgradeResp           6294                       # Transaction distribution
system.tol2bus.trans_dist::ReadExReq          8889961                       # Transaction distribution
system.tol2bus.trans_dist::ReadExResp         8889961                       # Transaction distribution
system.tol2bus.trans_dist::ReadCleanReq          6392                       # Transaction distribution
system.tol2bus.trans_dist::ReadSharedReq     67480317                       # Transaction distribution
system.tol2bus.trans_dist::InvalidateReq          468                       # Transaction distribution
system.tol2bus.trans_dist::InvalidateResp          468                       # Transaction distribution
system.tol2bus.pkt_count_system.cpu.icache.mem_side_port::system.l2.cpu_side_port        11208                       # Packet count per connected requestor and responder (bytes)
system.tol2bus.pkt_count_system.cpu.dcache.mem_side_port::system.l2.cpu_side_port    229124314                       # Packet count per connected requestor and responder (bytes)
system.tol2bus.pkt_count::total             229135522                       # Packet count per connected requestor and responder (bytes)
system.tol2bus.pkt_size_system.cpu.icache.mem_side_port::system.l2.cpu_side_port       308224                       # Cumulative packet size per connected requestor and responder (bytes)
system.tol2bus.pkt_size_system.cpu.dcache.mem_side_port::system.l2.cpu_side_port   9775392768                       # Cumulative packet size per connected requestor and responder (bytes)
system.tol2bus.pkt_size::total             9775700992                       # Cumulative packet size per connected requestor and responder (bytes)
system.tol2bus.snoops                        22525658                       # Total snoops (count)
system.tol2bus.snoopTraffic                    786176                       # Total snoop traffic (bytes)
system.tol2bus.snoop_fanout::samples         98907514                       # Request fanout histogram
system.tol2bus.snoop_fanout::mean            0.000534                       # Request fanout histogram
system.tol2bus.snoop_fanout::stdev           0.023100                       # Request fanout histogram
system.tol2bus.snoop_fanout::underflows             0      0.00%      0.00% # Request fanout histogram
system.tol2bus.snoop_fanout::0               98854709     99.95%     99.95% # Request fanout histogram
system.tol2bus.snoop_fanout::1                  52805      0.05%    100.00% # Request fanout histogram
system.tol2bus.snoop_fanout::2                      0      0.00%    100.00% # Request fanout histogram
system.tol2bus.snoop_fanout::overflows              0      0.00%    100.00% # Request fanout histogram
system.tol2bus.snoop_fanout::min_value              0                       # Request fanout histogram
system.tol2bus.snoop_fanout::max_value              1                       # Request fanout histogram
system.tol2bus.snoop_fanout::total           98907514                       # Request fanout histogram
system.tol2bus.power_state.pwrStateResidencyTicks::UNDEFINED 6237231069000                       # Cumulative time (in ticks) in various power states
system.tol2bus.reqLayer0.occupancy       152747062999                       # Layer occupancy (ticks)
system.tol2bus.reqLayer0.utilization             13.7                       # Layer utilization (%)
system.tol2bus.respLayer0.occupancy           9614928                       # Layer occupancy (ticks)
system.tol2bus.respLayer0.utilization             0.0                       # Layer utilization (%)
system.tol2bus.respLayer1.occupancy      114558792000                       # Layer occupancy (ticks)
system.tol2bus.respLayer1.utilization            10.3                       # Layer utilization (%)
system.voltage_domain.voltage                       1                       # Voltage in Volts

---------- End Simulation Statistics   ----------
