
---------- Begin Simulation Statistics ----------
final_tick                               6168383145000                       # Number of ticks from beginning of simulation (restored from checkpoints and never reset)
host_inst_rate                                 333356                       # Simulator instruction rate (inst/s)
host_mem_usage                               23587412                       # Number of bytes of host memory used
host_op_rate                                   363903                       # Simulator op (including micro ops) rate (op/s)
host_seconds                                  5999.59                       # Real time elapsed on the host
host_tick_rate                              103318241                       # Simulator tick rate (ticks/s)
sim_freq                                 1000000000000                       # Frequency of simulated ticks
sim_insts                                  2000000024                       # Number of instructions simulated
sim_ops                                    2183267854                       # Number of ops (including micro ops) simulated
sim_seconds                                  0.619867                       # Number of seconds simulated
sim_ticks                                619866627000                       # Number of ticks simulated
system.cpu.Branches                                 2                       # Number of branches fetched
system.cpu.committedInsts                          20                       # Number of instructions committed
system.cpu.committedOps                            20                       # Number of ops (including micro ops) committed
system.cpu.dcache.MSHRs.leapFrogMisses          83907                       # number of false blocks from MSHR
system.cpu.icache.MSHRs.leapFrogMisses              0                       # number of false blocks from MSHR
system.cpu.idle_fraction                            0                       # Percentage of idle cycles
system.cpu.not_idle_fraction                        1                       # Percentage of non-idle cycles
system.cpu.numCycles                               20                       # number of cpu cycles simulated
system.cpu.numWorkItemsCompleted                    0                       # number of work items this cpu completed
system.cpu.numWorkItemsStarted                      0                       # number of work items this cpu started
system.cpu.num_busy_cycles                         20                       # Number of busy cycles
system.cpu.num_cc_register_reads                    6                       # number of times the CC registers were read
system.cpu.num_cc_register_writes                   7                       # number of times the CC registers were written
system.cpu.num_conditional_control_insts            2                       # number of instructions that are conditional controls
system.cpu.num_fp_alu_accesses                      0                       # Number of float alu accesses
system.cpu.num_fp_insts                             0                       # number of float instructions
system.cpu.num_fp_register_reads                    0                       # number of times the floating registers were read
system.cpu.num_fp_register_writes                   0                       # number of times the floating registers were written
system.cpu.num_func_calls                           0                       # number of times a function call or return occured
system.cpu.num_idle_cycles                          0                       # Number of idle cycles
system.cpu.num_int_alu_accesses                     9                       # Number of integer alu accesses
system.cpu.num_int_insts                            9                       # number of integer instructions
system.cpu.num_int_register_reads                  51                       # number of times the integer registers were read
system.cpu.num_int_register_writes                 12                       # number of times the integer registers were written
system.cpu.num_load_insts                           7                       # Number of load instructions
system.cpu.num_mem_refs                             7                       # number of memory refs
system.cpu.num_store_insts                          0                       # Number of store instructions
system.cpu.num_vec_alu_accesses                    15                       # Number of vector alu accesses
system.cpu.num_vec_insts                           15                       # number of vector instructions
system.cpu.num_vec_register_reads                  18                       # number of times the vector registers were read
system.cpu.num_vec_register_writes                 14                       # number of times the vector registers were written
system.cpu.op_class::No_OpClass                     0      0.00%      0.00% # Class of executed instruction
system.cpu.op_class::IntAlu                         4     20.00%     20.00% # Class of executed instruction
system.cpu.op_class::IntMult                        0      0.00%     20.00% # Class of executed instruction
system.cpu.op_class::IntDiv                         0      0.00%     20.00% # Class of executed instruction
system.cpu.op_class::FloatAdd                       5     25.00%     45.00% # Class of executed instruction
system.cpu.op_class::FloatCmp                       1      5.00%     50.00% # Class of executed instruction
system.cpu.op_class::FloatCvt                       0      0.00%     50.00% # Class of executed instruction
system.cpu.op_class::FloatMult                      3     15.00%     65.00% # Class of executed instruction
system.cpu.op_class::FloatMultAcc                   0      0.00%     65.00% # Class of executed instruction
system.cpu.op_class::FloatDiv                       0      0.00%     65.00% # Class of executed instruction
system.cpu.op_class::FloatMisc                      0      0.00%     65.00% # Class of executed instruction
system.cpu.op_class::FloatSqrt                      0      0.00%     65.00% # Class of executed instruction
system.cpu.op_class::SimdAdd                        0      0.00%     65.00% # Class of executed instruction
system.cpu.op_class::SimdAddAcc                     0      0.00%     65.00% # Class of executed instruction
system.cpu.op_class::SimdAlu                        0      0.00%     65.00% # Class of executed instruction
system.cpu.op_class::SimdCmp                        0      0.00%     65.00% # Class of executed instruction
system.cpu.op_class::SimdCvt                        0      0.00%     65.00% # Class of executed instruction
system.cpu.op_class::SimdMisc                       0      0.00%     65.00% # Class of executed instruction
system.cpu.op_class::SimdMult                       0      0.00%     65.00% # Class of executed instruction
system.cpu.op_class::SimdMultAcc                    0      0.00%     65.00% # Class of executed instruction
system.cpu.op_class::SimdShift                      0      0.00%     65.00% # Class of executed instruction
system.cpu.op_class::SimdShiftAcc                   0      0.00%     65.00% # Class of executed instruction
system.cpu.op_class::SimdDiv                        0      0.00%     65.00% # Class of executed instruction
system.cpu.op_class::SimdSqrt                       0      0.00%     65.00% # Class of executed instruction
system.cpu.op_class::SimdFloatAdd                   0      0.00%     65.00% # Class of executed instruction
system.cpu.op_class::SimdFloatAlu                   0      0.00%     65.00% # Class of executed instruction
system.cpu.op_class::SimdFloatCmp                   0      0.00%     65.00% # Class of executed instruction
system.cpu.op_class::SimdFloatCvt                   0      0.00%     65.00% # Class of executed instruction
system.cpu.op_class::SimdFloatDiv                   0      0.00%     65.00% # Class of executed instruction
system.cpu.op_class::SimdFloatMisc                  0      0.00%     65.00% # Class of executed instruction
system.cpu.op_class::SimdFloatMult                  0      0.00%     65.00% # Class of executed instruction
system.cpu.op_class::SimdFloatMultAcc               0      0.00%     65.00% # Class of executed instruction
system.cpu.op_class::SimdFloatSqrt                  0      0.00%     65.00% # Class of executed instruction
system.cpu.op_class::SimdReduceAdd                  0      0.00%     65.00% # Class of executed instruction
system.cpu.op_class::SimdReduceAlu                  0      0.00%     65.00% # Class of executed instruction
system.cpu.op_class::SimdReduceCmp                  0      0.00%     65.00% # Class of executed instruction
system.cpu.op_class::SimdFloatReduceAdd             0      0.00%     65.00% # Class of executed instruction
system.cpu.op_class::SimdFloatReduceCmp             0      0.00%     65.00% # Class of executed instruction
system.cpu.op_class::SimdAes                        0      0.00%     65.00% # Class of executed instruction
system.cpu.op_class::SimdAesMix                     0      0.00%     65.00% # Class of executed instruction
system.cpu.op_class::SimdSha1Hash                   0      0.00%     65.00% # Class of executed instruction
system.cpu.op_class::SimdSha1Hash2                  0      0.00%     65.00% # Class of executed instruction
system.cpu.op_class::SimdSha256Hash                 0      0.00%     65.00% # Class of executed instruction
system.cpu.op_class::SimdSha256Hash2                0      0.00%     65.00% # Class of executed instruction
system.cpu.op_class::SimdShaSigma2                  0      0.00%     65.00% # Class of executed instruction
system.cpu.op_class::SimdShaSigma3                  0      0.00%     65.00% # Class of executed instruction
system.cpu.op_class::SimdPredAlu                    0      0.00%     65.00% # Class of executed instruction
system.cpu.op_class::MemRead                        7     35.00%    100.00% # Class of executed instruction
system.cpu.op_class::MemWrite                       0      0.00%    100.00% # Class of executed instruction
system.cpu.op_class::FloatMemRead                   0      0.00%    100.00% # Class of executed instruction
system.cpu.op_class::FloatMemWrite                  0      0.00%    100.00% # Class of executed instruction
system.cpu.op_class::IprAccess                      0      0.00%    100.00% # Class of executed instruction
system.cpu.op_class::InstPrefetch                   0      0.00%    100.00% # Class of executed instruction
system.cpu.op_class::total                         20                       # Class of executed instruction
system.cpu.workload.numSyscalls                    36                       # Number of system calls
system.l2.MSHRs.leapFrogMisses                      0                       # number of false blocks from MSHR
system.membus.snoop_filter.hit_multi_requests            0                       # Number of requests hitting in the snoop filter with multiple (>1) holders of the requested data.
system.membus.snoop_filter.hit_multi_snoops            0                       # Number of snoops hitting in the snoop filter with multiple (>1) holders of the requested data.
system.membus.snoop_filter.hit_single_requests       423208                       # Number of requests hitting in the snoop filter with a single holder of the requested data.
system.membus.snoop_filter.hit_single_snoops            0                       # Number of snoops hitting in the snoop filter with a single holder of the requested data.
system.membus.snoop_filter.tot_requests        977523                       # Total number of requests made to the snoop filter.
system.membus.snoop_filter.tot_snoops               0                       # Total number of snoops made to the snoop filter.
system.switch_cpus.cc_regfile_reads         860046840                       # number of cc regfile reads
system.switch_cpus.cc_regfile_writes        899821016                       # number of cc regfile writes
system.switch_cpus.committedInsts          2000000004                       # Number of Instructions Simulated
system.switch_cpus.committedOps            2183267834                       # Number of Ops (including micro ops) Simulated
system.switch_cpus.cpi                       0.619867                       # CPI: Cycles Per Instruction
system.switch_cpus.cpi_total                 0.619867                       # CPI: Total CPI of All Threads
system.switch_cpus.idleCycles                   21487                       # Total number of cycles that the CPU has spent unscheduled due to idling
system.switch_cpus.iew.branchMispredicts     30947369                       # Number of branch mispredicts detected at execute
system.switch_cpus.iew.exec_branches        419956021                       # Number of branches executed
system.switch_cpus.iew.exec_nop                  4665                       # number of nop insts executed
system.switch_cpus.iew.exec_rate             2.266905                       # Inst execution rate
system.switch_cpus.iew.exec_refs            835012277                       # number of memory reference insts executed
system.switch_cpus.iew.exec_stores          275994934                       # Number of stores executed
system.switch_cpus.iew.exec_swp                     0                       # number of swp insts executed
system.switch_cpus.iew.iewBlockCycles        92562749                       # Number of cycles IEW is blocking
system.switch_cpus.iew.iewDispLoadInsts     566943411                       # Number of dispatched load instructions
system.switch_cpus.iew.iewDispNonSpecInsts           65                       # Number of dispatched non-speculative instructions
system.switch_cpus.iew.iewDispSquashedInsts      3119085                       # Number of squashed instructions skipped by dispatch
system.switch_cpus.iew.iewDispStoreInsts    282512220                       # Number of dispatched store instructions
system.switch_cpus.iew.iewDispatchedInsts   3003724919                       # Number of instructions dispatched to IQ
system.switch_cpus.iew.iewExecLoadInsts     559017343                       # Number of load instructions executed
system.switch_cpus.iew.iewExecSquashedInsts     52254189                       # Number of squashed instructions skipped in execute
system.switch_cpus.iew.iewExecutedInsts    2810357505                       # Number of executed instructions
system.switch_cpus.iew.iewIQFullEvents         691111                       # Number of times the IQ has become full, causing a stall
system.switch_cpus.iew.iewIdleCycles                0                       # Number of cycles IEW is idle
system.switch_cpus.iew.iewLSQFullEvents      57583978                       # Number of times the LSQ has become full, causing a stall
system.switch_cpus.iew.iewSquashCycles       29039239                       # Number of cycles IEW is squashing
system.switch_cpus.iew.iewUnblockCycles      58282088                       # Number of cycles IEW is unblocking
system.switch_cpus.iew.memOrderViolationEvents        25008                       # Number of memory order violations
system.switch_cpus.iew.predictedNotTakenIncorrect     15241302                       # Number of branches that were predicted not taken incorrectly
system.switch_cpus.iew.predictedTakenIncorrect     15706067                       # Number of branches that were predicted taken incorrectly
system.switch_cpus.iew.wb_consumers        2751249890                       # num instructions consuming a value
system.switch_cpus.iew.wb_count            2735489481                       # cumulative count of insts written-back
system.switch_cpus.iew.wb_fanout             0.561886                       # average fanout of values written-back
system.switch_cpus.iew.wb_producers        1545890159                       # num instructions producing a value
system.switch_cpus.iew.wb_rate               2.206515                       # insts written-back per cycle
system.switch_cpus.iew.wb_sent             2741828288                       # cumulative count of insts sent to commit
system.switch_cpus.int_regfile_reads       3643735780                       # number of integer regfile reads
system.switch_cpus.int_regfile_writes      1789177959                       # number of integer regfile writes
system.switch_cpus.ipc                       1.613250                       # IPC: Instructions Per Cycle
system.switch_cpus.ipc_total                 1.613250                       # IPC: Total IPC of All Threads
system.switch_cpus.iq.FU_type_0::No_OpClass           44      0.00%      0.00% # Type of FU issued
system.switch_cpus.iq.FU_type_0::IntAlu    1740680132     60.81%     60.81% # Type of FU issued
system.switch_cpus.iq.FU_type_0::IntMult     55879968      1.95%     62.76% # Type of FU issued
system.switch_cpus.iq.FU_type_0::IntDiv      17170988      0.60%     63.36% # Type of FU issued
system.switch_cpus.iq.FU_type_0::FloatAdd     89535876      3.13%     66.49% # Type of FU issued
system.switch_cpus.iq.FU_type_0::FloatCmp     28926960      1.01%     67.50% # Type of FU issued
system.switch_cpus.iq.FU_type_0::FloatCvt            0      0.00%     67.50% # Type of FU issued
system.switch_cpus.iq.FU_type_0::FloatMult     44910710      1.57%     69.07% # Type of FU issued
system.switch_cpus.iq.FU_type_0::FloatMultAcc            0      0.00%     69.07% # Type of FU issued
system.switch_cpus.iq.FU_type_0::FloatDiv            0      0.00%     69.07% # Type of FU issued
system.switch_cpus.iq.FU_type_0::FloatMisc     34691318      1.21%     70.28% # Type of FU issued
system.switch_cpus.iq.FU_type_0::FloatSqrt            0      0.00%     70.28% # Type of FU issued
system.switch_cpus.iq.FU_type_0::SimdAdd            0      0.00%     70.28% # Type of FU issued
system.switch_cpus.iq.FU_type_0::SimdAddAcc            0      0.00%     70.28% # Type of FU issued
system.switch_cpus.iq.FU_type_0::SimdAlu            0      0.00%     70.28% # Type of FU issued
system.switch_cpus.iq.FU_type_0::SimdCmp            0      0.00%     70.28% # Type of FU issued
system.switch_cpus.iq.FU_type_0::SimdCvt            0      0.00%     70.28% # Type of FU issued
system.switch_cpus.iq.FU_type_0::SimdMisc            0      0.00%     70.28% # Type of FU issued
system.switch_cpus.iq.FU_type_0::SimdMult            0      0.00%     70.28% # Type of FU issued
system.switch_cpus.iq.FU_type_0::SimdMultAcc            0      0.00%     70.28% # Type of FU issued
system.switch_cpus.iq.FU_type_0::SimdShift            0      0.00%     70.28% # Type of FU issued
system.switch_cpus.iq.FU_type_0::SimdShiftAcc            0      0.00%     70.28% # Type of FU issued
system.switch_cpus.iq.FU_type_0::SimdDiv            0      0.00%     70.28% # Type of FU issued
system.switch_cpus.iq.FU_type_0::SimdSqrt            0      0.00%     70.28% # Type of FU issued
system.switch_cpus.iq.FU_type_0::SimdFloatAdd            0      0.00%     70.28% # Type of FU issued
system.switch_cpus.iq.FU_type_0::SimdFloatAlu            0      0.00%     70.28% # Type of FU issued
system.switch_cpus.iq.FU_type_0::SimdFloatCmp            0      0.00%     70.28% # Type of FU issued
system.switch_cpus.iq.FU_type_0::SimdFloatCvt            0      0.00%     70.28% # Type of FU issued
system.switch_cpus.iq.FU_type_0::SimdFloatDiv            0      0.00%     70.28% # Type of FU issued
system.switch_cpus.iq.FU_type_0::SimdFloatMisc            0      0.00%     70.28% # Type of FU issued
system.switch_cpus.iq.FU_type_0::SimdFloatMult            0      0.00%     70.28% # Type of FU issued
system.switch_cpus.iq.FU_type_0::SimdFloatMultAcc            0      0.00%     70.28% # Type of FU issued
system.switch_cpus.iq.FU_type_0::SimdFloatSqrt            0      0.00%     70.28% # Type of FU issued
system.switch_cpus.iq.FU_type_0::SimdReduceAdd            0      0.00%     70.28% # Type of FU issued
system.switch_cpus.iq.FU_type_0::SimdReduceAlu            0      0.00%     70.28% # Type of FU issued
system.switch_cpus.iq.FU_type_0::SimdReduceCmp            0      0.00%     70.28% # Type of FU issued
system.switch_cpus.iq.FU_type_0::SimdFloatReduceAdd            0      0.00%     70.28% # Type of FU issued
system.switch_cpus.iq.FU_type_0::SimdFloatReduceCmp            0      0.00%     70.28% # Type of FU issued
system.switch_cpus.iq.FU_type_0::SimdAes            0      0.00%     70.28% # Type of FU issued
system.switch_cpus.iq.FU_type_0::SimdAesMix            0      0.00%     70.28% # Type of FU issued
system.switch_cpus.iq.FU_type_0::SimdSha1Hash            0      0.00%     70.28% # Type of FU issued
system.switch_cpus.iq.FU_type_0::SimdSha1Hash2            0      0.00%     70.28% # Type of FU issued
system.switch_cpus.iq.FU_type_0::SimdSha256Hash            0      0.00%     70.28% # Type of FU issued
system.switch_cpus.iq.FU_type_0::SimdSha256Hash2            0      0.00%     70.28% # Type of FU issued
system.switch_cpus.iq.FU_type_0::SimdShaSigma2            0      0.00%     70.28% # Type of FU issued
system.switch_cpus.iq.FU_type_0::SimdShaSigma3            0      0.00%     70.28% # Type of FU issued
system.switch_cpus.iq.FU_type_0::SimdPredAlu            0      0.00%     70.28% # Type of FU issued
system.switch_cpus.iq.FU_type_0::MemRead    571984551     19.98%     90.26% # Type of FU issued
system.switch_cpus.iq.FU_type_0::MemWrite    278831152      9.74%    100.00% # Type of FU issued
system.switch_cpus.iq.FU_type_0::FloatMemRead            0      0.00%    100.00% # Type of FU issued
system.switch_cpus.iq.FU_type_0::FloatMemWrite            0      0.00%    100.00% # Type of FU issued
system.switch_cpus.iq.FU_type_0::IprAccess            0      0.00%    100.00% # Type of FU issued
system.switch_cpus.iq.FU_type_0::InstPrefetch            0      0.00%    100.00% # Type of FU issued
system.switch_cpus.iq.FU_type_0::total     2862611699                       # Type of FU issued
system.switch_cpus.iq.fp_alu_accesses               0                       # Number of floating point alu accesses
system.switch_cpus.iq.fp_inst_queue_reads            0                       # Number of floating instruction queue reads
system.switch_cpus.iq.fp_inst_queue_wakeup_accesses            0                       # Number of floating instruction queue wakeup accesses
system.switch_cpus.iq.fp_inst_queue_writes            0                       # Number of floating instruction queue writes
system.switch_cpus.iq.fu_busy_cnt            36035641                       # FU busy when requested
system.switch_cpus.iq.fu_busy_rate           0.012588                       # FU busy rate (busy events/executed inst)
system.switch_cpus.iq.fu_full::No_OpClass            0      0.00%      0.00% # attempts to use FU when none available
system.switch_cpus.iq.fu_full::IntAlu        15047048     41.76%     41.76% # attempts to use FU when none available
system.switch_cpus.iq.fu_full::IntMult         836711      2.32%     44.08% # attempts to use FU when none available
system.switch_cpus.iq.fu_full::IntDiv           43186      0.12%     44.20% # attempts to use FU when none available
system.switch_cpus.iq.fu_full::FloatAdd         31741      0.09%     44.29% # attempts to use FU when none available
system.switch_cpus.iq.fu_full::FloatCmp          7415      0.02%     44.31% # attempts to use FU when none available
system.switch_cpus.iq.fu_full::FloatCvt             0      0.00%     44.31% # attempts to use FU when none available
system.switch_cpus.iq.fu_full::FloatMult       257080      0.71%     45.02% # attempts to use FU when none available
system.switch_cpus.iq.fu_full::FloatMultAcc            0      0.00%     45.02% # attempts to use FU when none available
system.switch_cpus.iq.fu_full::FloatDiv             0      0.00%     45.02% # attempts to use FU when none available
system.switch_cpus.iq.fu_full::FloatMisc       435987      1.21%     46.23% # attempts to use FU when none available
system.switch_cpus.iq.fu_full::FloatSqrt            0      0.00%     46.23% # attempts to use FU when none available
system.switch_cpus.iq.fu_full::SimdAdd              0      0.00%     46.23% # attempts to use FU when none available
system.switch_cpus.iq.fu_full::SimdAddAcc            0      0.00%     46.23% # attempts to use FU when none available
system.switch_cpus.iq.fu_full::SimdAlu              0      0.00%     46.23% # attempts to use FU when none available
system.switch_cpus.iq.fu_full::SimdCmp              0      0.00%     46.23% # attempts to use FU when none available
system.switch_cpus.iq.fu_full::SimdCvt              0      0.00%     46.23% # attempts to use FU when none available
system.switch_cpus.iq.fu_full::SimdMisc             0      0.00%     46.23% # attempts to use FU when none available
system.switch_cpus.iq.fu_full::SimdMult             0      0.00%     46.23% # attempts to use FU when none available
system.switch_cpus.iq.fu_full::SimdMultAcc            0      0.00%     46.23% # attempts to use FU when none available
system.switch_cpus.iq.fu_full::SimdShift            0      0.00%     46.23% # attempts to use FU when none available
system.switch_cpus.iq.fu_full::SimdShiftAcc            0      0.00%     46.23% # attempts to use FU when none available
system.switch_cpus.iq.fu_full::SimdDiv              0      0.00%     46.23% # attempts to use FU when none available
system.switch_cpus.iq.fu_full::SimdSqrt             0      0.00%     46.23% # attempts to use FU when none available
system.switch_cpus.iq.fu_full::SimdFloatAdd            0      0.00%     46.23% # attempts to use FU when none available
system.switch_cpus.iq.fu_full::SimdFloatAlu            0      0.00%     46.23% # attempts to use FU when none available
system.switch_cpus.iq.fu_full::SimdFloatCmp            0      0.00%     46.23% # attempts to use FU when none available
system.switch_cpus.iq.fu_full::SimdFloatCvt            0      0.00%     46.23% # attempts to use FU when none available
system.switch_cpus.iq.fu_full::SimdFloatDiv            0      0.00%     46.23% # attempts to use FU when none available
system.switch_cpus.iq.fu_full::SimdFloatMisc            0      0.00%     46.23% # attempts to use FU when none available
system.switch_cpus.iq.fu_full::SimdFloatMult            0      0.00%     46.23% # attempts to use FU when none available
system.switch_cpus.iq.fu_full::SimdFloatMultAcc            0      0.00%     46.23% # attempts to use FU when none available
system.switch_cpus.iq.fu_full::SimdFloatSqrt            0      0.00%     46.23% # attempts to use FU when none available
system.switch_cpus.iq.fu_full::SimdReduceAdd            0      0.00%     46.23% # attempts to use FU when none available
system.switch_cpus.iq.fu_full::SimdReduceAlu            0      0.00%     46.23% # attempts to use FU when none available
system.switch_cpus.iq.fu_full::SimdReduceCmp            0      0.00%     46.23% # attempts to use FU when none available
system.switch_cpus.iq.fu_full::SimdFloatReduceAdd            0      0.00%     46.23% # attempts to use FU when none available
system.switch_cpus.iq.fu_full::SimdFloatReduceCmp            0      0.00%     46.23% # attempts to use FU when none available
system.switch_cpus.iq.fu_full::SimdAes              0      0.00%     46.23% # attempts to use FU when none available
system.switch_cpus.iq.fu_full::SimdAesMix            0      0.00%     46.23% # attempts to use FU when none available
system.switch_cpus.iq.fu_full::SimdSha1Hash            0      0.00%     46.23% # attempts to use FU when none available
system.switch_cpus.iq.fu_full::SimdSha1Hash2            0      0.00%     46.23% # attempts to use FU when none available
system.switch_cpus.iq.fu_full::SimdSha256Hash            0      0.00%     46.23% # attempts to use FU when none available
system.switch_cpus.iq.fu_full::SimdSha256Hash2            0      0.00%     46.23% # attempts to use FU when none available
system.switch_cpus.iq.fu_full::SimdShaSigma2            0      0.00%     46.23% # attempts to use FU when none available
system.switch_cpus.iq.fu_full::SimdShaSigma3            0      0.00%     46.23% # attempts to use FU when none available
system.switch_cpus.iq.fu_full::SimdPredAlu            0      0.00%     46.23% # attempts to use FU when none available
system.switch_cpus.iq.fu_full::MemRead       10642655     29.53%     75.76% # attempts to use FU when none available
system.switch_cpus.iq.fu_full::MemWrite       8733818     24.24%    100.00% # attempts to use FU when none available
system.switch_cpus.iq.fu_full::FloatMemRead            0      0.00%    100.00% # attempts to use FU when none available
system.switch_cpus.iq.fu_full::FloatMemWrite            0      0.00%    100.00% # attempts to use FU when none available
system.switch_cpus.iq.fu_full::IprAccess            0      0.00%    100.00% # attempts to use FU when none available
system.switch_cpus.iq.fu_full::InstPrefetch            0      0.00%    100.00% # attempts to use FU when none available
system.switch_cpus.iq.int_alu_accesses     2537029264                       # Number of integer alu accesses
system.switch_cpus.iq.int_inst_queue_reads   6281967384                       # Number of integer instruction queue reads
system.switch_cpus.iq.int_inst_queue_wakeup_accesses   2389771454                       # Number of integer instruction queue wakeup accesses
system.switch_cpus.iq.int_inst_queue_writes   3354398077                       # Number of integer instruction queue writes
system.switch_cpus.iq.iqInstsAdded         3003720189                       # Number of instructions added to the IQ (excludes non-spec)
system.switch_cpus.iq.iqInstsIssued        2862611699                       # Number of instructions issued
system.switch_cpus.iq.iqNonSpecInstsAdded           65                       # Number of non-speculative instructions added to the IQ
system.switch_cpus.iq.iqSquashedInstsExamined    820452397                       # Number of squashed instructions iterated over during squash; mainly for profiling
system.switch_cpus.iq.iqSquashedInstsIssued       749644                       # Number of squashed instructions issued
system.switch_cpus.iq.iqSquashedNonSpecRemoved           29                       # Number of squashed non-spec instructions that were removed
system.switch_cpus.iq.iqSquashedOperandsExamined    591738153                       # Number of squashed operands that are examined and possibly removed from graph
system.switch_cpus.iq.issued_per_cycle::samples   1239711747                       # Number of insts issued each cycle
system.switch_cpus.iq.issued_per_cycle::mean     2.309095                       # Number of insts issued each cycle
system.switch_cpus.iq.issued_per_cycle::stdev     2.236543                       # Number of insts issued each cycle
system.switch_cpus.iq.issued_per_cycle::underflows            0      0.00%      0.00% # Number of insts issued each cycle
system.switch_cpus.iq.issued_per_cycle::0    390379266     31.49%     31.49% # Number of insts issued each cycle
system.switch_cpus.iq.issued_per_cycle::1    183414708     14.79%     46.28% # Number of insts issued each cycle
system.switch_cpus.iq.issued_per_cycle::2    157214283     12.68%     58.97% # Number of insts issued each cycle
system.switch_cpus.iq.issued_per_cycle::3    124506747     10.04%     69.01% # Number of insts issued each cycle
system.switch_cpus.iq.issued_per_cycle::4    145501666     11.74%     80.75% # Number of insts issued each cycle
system.switch_cpus.iq.issued_per_cycle::5    103712190      8.37%     89.11% # Number of insts issued each cycle
system.switch_cpus.iq.issued_per_cycle::6     78202114      6.31%     95.42% # Number of insts issued each cycle
system.switch_cpus.iq.issued_per_cycle::7     32778298      2.64%     98.06% # Number of insts issued each cycle
system.switch_cpus.iq.issued_per_cycle::8     24002475      1.94%    100.00% # Number of insts issued each cycle
system.switch_cpus.iq.issued_per_cycle::overflows            0      0.00%    100.00% # Number of insts issued each cycle
system.switch_cpus.iq.issued_per_cycle::min_value            0                       # Number of insts issued each cycle
system.switch_cpus.iq.issued_per_cycle::max_value            8                       # Number of insts issued each cycle
system.switch_cpus.iq.issued_per_cycle::total   1239711747                       # Number of insts issued each cycle
system.switch_cpus.iq.rate                   2.309055                       # Inst issue rate
system.switch_cpus.iq.vec_alu_accesses      361618032                       # Number of vector alu accesses
system.switch_cpus.iq.vec_inst_queue_reads    719753041                       # Number of vector instruction queue reads
system.switch_cpus.iq.vec_inst_queue_wakeup_accesses    345718027                       # Number of vector instruction queue wakeup accesses
system.switch_cpus.iq.vec_inst_queue_writes    469798111                       # Number of vector instruction queue writes
system.switch_cpus.memDep0.conflictingLoads      9383948                       # Number of conflicting loads.
system.switch_cpus.memDep0.conflictingStores     17910387                       # Number of conflicting stores.
system.switch_cpus.memDep0.insertedLoads    566943411                       # Number of loads inserted to the mem dependence unit.
system.switch_cpus.memDep0.insertedStores    282512220                       # Number of stores inserted to the mem dependence unit.
system.switch_cpus.misc_regfile_reads      7388275784                       # number of misc regfile reads
system.switch_cpus.misc_regfile_writes      154765026                       # number of misc regfile writes
system.switch_cpus.numCycles               1239733234                       # number of cpu cycles simulated
system.switch_cpus.numWorkItemsCompleted            0                       # number of work items this cpu completed
system.switch_cpus.numWorkItemsStarted              0                       # number of work items this cpu started
system.switch_cpus.timesIdled                     234                       # Number of times that the entire CPU went into an idle state and unscheduled itself
system.switch_cpus.vec_regfile_reads        375752021                       # number of vector regfile reads
system.switch_cpus.vec_regfile_writes       310050440                       # number of vector regfile writes
system.tol2bus.snoop_filter.hit_multi_requests            0                       # Number of requests hitting in the snoop filter with multiple (>1) holders of the requested data.
system.tol2bus.snoop_filter.hit_multi_snoops            0                       # Number of snoops hitting in the snoop filter with multiple (>1) holders of the requested data.
system.tol2bus.snoop_filter.hit_single_requests     17426185                       # Number of requests hitting in the snoop filter with a single holder of the requested data.
system.tol2bus.snoop_filter.hit_single_snoops       263702                       # Number of snoops hitting in the snoop filter with a single holder of the requested data.
system.tol2bus.snoop_filter.tot_requests     34517416                       # Total number of requests made to the snoop filter.
system.tol2bus.snoop_filter.tot_snoops         263702                       # Total number of snoops made to the snoop filter.
system.clk_domain.clock                          1000                       # Clock period in ticks
system.cpu.dcache.demand_hits::.cpu.data            4                       # number of demand (read+write) hits
system.cpu.dcache.demand_hits::.switch_cpus.data    678050998                       # number of demand (read+write) hits
system.cpu.dcache.demand_hits::total        678051002                       # number of demand (read+write) hits
system.cpu.dcache.overall_hits::.cpu.data            4                       # number of overall hits
system.cpu.dcache.overall_hits::.switch_cpus.data    678050998                       # number of overall hits
system.cpu.dcache.overall_hits::total       678051002                       # number of overall hits
system.cpu.dcache.demand_misses::.cpu.data            3                       # number of demand (read+write) misses
system.cpu.dcache.demand_misses::.switch_cpus.data     38144763                       # number of demand (read+write) misses
system.cpu.dcache.demand_misses::total       38144766                       # number of demand (read+write) misses
system.cpu.dcache.overall_misses::.cpu.data            3                       # number of overall misses
system.cpu.dcache.overall_misses::.switch_cpus.data     38144763                       # number of overall misses
system.cpu.dcache.overall_misses::total      38144766                       # number of overall misses
system.cpu.dcache.demand_miss_latency::.switch_cpus.data 589305970069                       # number of demand (read+write) miss cycles
system.cpu.dcache.demand_miss_latency::total 589305970069                       # number of demand (read+write) miss cycles
system.cpu.dcache.overall_miss_latency::.switch_cpus.data 589305970069                       # number of overall miss cycles
system.cpu.dcache.overall_miss_latency::total 589305970069                       # number of overall miss cycles
system.cpu.dcache.demand_accesses::.cpu.data            7                       # number of demand (read+write) accesses
system.cpu.dcache.demand_accesses::.switch_cpus.data    716195761                       # number of demand (read+write) accesses
system.cpu.dcache.demand_accesses::total    716195768                       # number of demand (read+write) accesses
system.cpu.dcache.overall_accesses::.cpu.data            7                       # number of overall (read+write) accesses
system.cpu.dcache.overall_accesses::.switch_cpus.data    716195761                       # number of overall (read+write) accesses
system.cpu.dcache.overall_accesses::total    716195768                       # number of overall (read+write) accesses
system.cpu.dcache.demand_miss_rate::.cpu.data     0.428571                       # miss rate for demand accesses
system.cpu.dcache.demand_miss_rate::.switch_cpus.data     0.053260                       # miss rate for demand accesses
system.cpu.dcache.demand_miss_rate::total     0.053260                       # miss rate for demand accesses
system.cpu.dcache.overall_miss_rate::.cpu.data     0.428571                       # miss rate for overall accesses
system.cpu.dcache.overall_miss_rate::.switch_cpus.data     0.053260                       # miss rate for overall accesses
system.cpu.dcache.overall_miss_rate::total     0.053260                       # miss rate for overall accesses
system.cpu.dcache.demand_avg_miss_latency::.switch_cpus.data 15449.197314                       # average overall miss latency
system.cpu.dcache.demand_avg_miss_latency::total 15449.196099                       # average overall miss latency
system.cpu.dcache.overall_avg_miss_latency::.switch_cpus.data 15449.197314                       # average overall miss latency
system.cpu.dcache.overall_avg_miss_latency::total 15449.196099                       # average overall miss latency
system.cpu.dcache.blocked_cycles::no_mshrs      3243256                       # number of cycles access was blocked
system.cpu.dcache.blocked_cycles::no_targets            0                       # number of cycles access was blocked
system.cpu.dcache.blocked::no_mshrs            258813                       # number of cycles access was blocked
system.cpu.dcache.blocked::no_targets               0                       # number of cycles access was blocked
system.cpu.dcache.avg_blocked_cycles::no_mshrs    12.531272                       # average number of cycles each access was blocked
system.cpu.dcache.avg_blocked_cycles::no_targets          nan                       # average number of cycles each access was blocked
system.cpu.dcache.ghost_timestamp_misses         2820                       # number of times timestamp policy causes a block to be inaccessible
system.cpu.dcache.ghost_commits              13897474                       # number of cache lines moved from ghost to main
system.cpu.dcache.same_leapfrogs               222161                       # number of times leapfrogging occurs with a shared MSHR request
system.cpu.dcache.writebacks::.writebacks     28475549                       # number of writebacks
system.cpu.dcache.writebacks::total          28475549                       # number of writebacks
system.cpu.dcache.demand_mshr_hits::.switch_cpus.data     20724141                       # number of demand (read+write) MSHR hits
system.cpu.dcache.demand_mshr_hits::total     20724141                       # number of demand (read+write) MSHR hits
system.cpu.dcache.overall_mshr_hits::.switch_cpus.data     20724141                       # number of overall MSHR hits
system.cpu.dcache.overall_mshr_hits::total     20724141                       # number of overall MSHR hits
system.cpu.dcache.demand_mshr_misses::.switch_cpus.data     17420622                       # number of demand (read+write) MSHR misses
system.cpu.dcache.demand_mshr_misses::total     17420622                       # number of demand (read+write) MSHR misses
system.cpu.dcache.overall_mshr_misses::.switch_cpus.data     17420622                       # number of overall MSHR misses
system.cpu.dcache.overall_mshr_misses::total     17420622                       # number of overall MSHR misses
system.cpu.dcache.demand_mshr_miss_latency::.switch_cpus.data 270814575960                       # number of demand (read+write) MSHR miss cycles
system.cpu.dcache.demand_mshr_miss_latency::total 270814575960                       # number of demand (read+write) MSHR miss cycles
system.cpu.dcache.overall_mshr_miss_latency::.switch_cpus.data 270814575960                       # number of overall MSHR miss cycles
system.cpu.dcache.overall_mshr_miss_latency::total 270814575960                       # number of overall MSHR miss cycles
system.cpu.dcache.demand_mshr_miss_rate::.switch_cpus.data     0.024324                       # mshr miss rate for demand accesses
system.cpu.dcache.demand_mshr_miss_rate::total     0.024324                       # mshr miss rate for demand accesses
system.cpu.dcache.overall_mshr_miss_rate::.switch_cpus.data     0.024324                       # mshr miss rate for overall accesses
system.cpu.dcache.overall_mshr_miss_rate::total     0.024324                       # mshr miss rate for overall accesses
system.cpu.dcache.demand_avg_mshr_miss_latency::.switch_cpus.data 15545.631836                       # average overall mshr miss latency
system.cpu.dcache.demand_avg_mshr_miss_latency::total 15545.631836                       # average overall mshr miss latency
system.cpu.dcache.overall_avg_mshr_miss_latency::.switch_cpus.data 15545.631836                       # average overall mshr miss latency
system.cpu.dcache.overall_avg_mshr_miss_latency::total 15545.631836                       # average overall mshr miss latency
system.cpu.dcache.replacements               14578783                       # number of replacements
system.cpu.dcache.ReadReq_hits::.cpu.data            4                       # number of ReadReq hits
system.cpu.dcache.ReadReq_hits::.switch_cpus.data    464907230                       # number of ReadReq hits
system.cpu.dcache.ReadReq_hits::total       464907234                       # number of ReadReq hits
system.cpu.dcache.ReadReq_misses::.cpu.data            3                       # number of ReadReq misses
system.cpu.dcache.ReadReq_misses::.switch_cpus.data     32123418                       # number of ReadReq misses
system.cpu.dcache.ReadReq_misses::total      32123421                       # number of ReadReq misses
system.cpu.dcache.ReadReq_miss_latency::.switch_cpus.data 489147821000                       # number of ReadReq miss cycles
system.cpu.dcache.ReadReq_miss_latency::total 489147821000                       # number of ReadReq miss cycles
system.cpu.dcache.ReadReq_accesses::.cpu.data            7                       # number of ReadReq accesses(hits+misses)
system.cpu.dcache.ReadReq_accesses::.switch_cpus.data    497030648                       # number of ReadReq accesses(hits+misses)
system.cpu.dcache.ReadReq_accesses::total    497030655                       # number of ReadReq accesses(hits+misses)
system.cpu.dcache.ReadReq_miss_rate::.cpu.data     0.428571                       # miss rate for ReadReq accesses
system.cpu.dcache.ReadReq_miss_rate::.switch_cpus.data     0.064631                       # miss rate for ReadReq accesses
system.cpu.dcache.ReadReq_miss_rate::total     0.064631                       # miss rate for ReadReq accesses
system.cpu.dcache.ReadReq_avg_miss_latency::.switch_cpus.data 15227.141178                       # average ReadReq miss latency
system.cpu.dcache.ReadReq_avg_miss_latency::total 15227.139756                       # average ReadReq miss latency
system.cpu.dcache.ReadReq_mshr_hits::.switch_cpus.data     15703930                       # number of ReadReq MSHR hits
system.cpu.dcache.ReadReq_mshr_hits::total     15703930                       # number of ReadReq MSHR hits
system.cpu.dcache.ReadReq_mshr_misses::.switch_cpus.data     16419488                       # number of ReadReq MSHR misses
system.cpu.dcache.ReadReq_mshr_misses::total     16419488                       # number of ReadReq MSHR misses
system.cpu.dcache.ReadReq_mshr_miss_latency::.switch_cpus.data 253672961000                       # number of ReadReq MSHR miss cycles
system.cpu.dcache.ReadReq_mshr_miss_latency::total 253672961000                       # number of ReadReq MSHR miss cycles
system.cpu.dcache.ReadReq_mshr_miss_rate::.switch_cpus.data     0.033035                       # mshr miss rate for ReadReq accesses
system.cpu.dcache.ReadReq_mshr_miss_rate::total     0.033035                       # mshr miss rate for ReadReq accesses
system.cpu.dcache.ReadReq_avg_mshr_miss_latency::.switch_cpus.data 15449.504942                       # average ReadReq mshr miss latency
system.cpu.dcache.ReadReq_avg_mshr_miss_latency::total 15449.504942                       # average ReadReq mshr miss latency
system.cpu.dcache.WriteReq_hits::.switch_cpus.data    213143768                       # number of WriteReq hits
system.cpu.dcache.WriteReq_hits::total      213143768                       # number of WriteReq hits
system.cpu.dcache.WriteReq_misses::.switch_cpus.data      6021345                       # number of WriteReq misses
system.cpu.dcache.WriteReq_misses::total      6021345                       # number of WriteReq misses
system.cpu.dcache.WriteReq_miss_latency::.switch_cpus.data 100158149069                       # number of WriteReq miss cycles
system.cpu.dcache.WriteReq_miss_latency::total 100158149069                       # number of WriteReq miss cycles
system.cpu.dcache.WriteReq_accesses::.switch_cpus.data    219165113                       # number of WriteReq accesses(hits+misses)
system.cpu.dcache.WriteReq_accesses::total    219165113                       # number of WriteReq accesses(hits+misses)
system.cpu.dcache.WriteReq_miss_rate::.switch_cpus.data     0.027474                       # miss rate for WriteReq accesses
system.cpu.dcache.WriteReq_miss_rate::total     0.027474                       # miss rate for WriteReq accesses
system.cpu.dcache.WriteReq_avg_miss_latency::.switch_cpus.data 16633.849924                       # average WriteReq miss latency
system.cpu.dcache.WriteReq_avg_miss_latency::total 16633.849924                       # average WriteReq miss latency
system.cpu.dcache.WriteReq_mshr_hits::.switch_cpus.data      5020211                       # number of WriteReq MSHR hits
system.cpu.dcache.WriteReq_mshr_hits::total      5020211                       # number of WriteReq MSHR hits
system.cpu.dcache.WriteReq_mshr_misses::.switch_cpus.data      1001134                       # number of WriteReq MSHR misses
system.cpu.dcache.WriteReq_mshr_misses::total      1001134                       # number of WriteReq MSHR misses
system.cpu.dcache.WriteReq_mshr_miss_latency::.switch_cpus.data  17141614960                       # number of WriteReq MSHR miss cycles
system.cpu.dcache.WriteReq_mshr_miss_latency::total  17141614960                       # number of WriteReq MSHR miss cycles
system.cpu.dcache.WriteReq_mshr_miss_rate::.switch_cpus.data     0.004568                       # mshr miss rate for WriteReq accesses
system.cpu.dcache.WriteReq_mshr_miss_rate::total     0.004568                       # mshr miss rate for WriteReq accesses
system.cpu.dcache.WriteReq_avg_mshr_miss_latency::.switch_cpus.data 17122.198387                       # average WriteReq mshr miss latency
system.cpu.dcache.WriteReq_avg_mshr_miss_latency::total 17122.198387                       # average WriteReq mshr miss latency
system.cpu.dcache.ghosttags.tagsinuse    -7393295.804657                       # Cycle average of tags in use
system.cpu.dcache.ghosttags.total_refs              0                       # Total number of references to valid blocks.
system.cpu.dcache.ghosttags.sampled_refs            0                       # Sample count of references to valid blocks.
system.cpu.dcache.ghosttags.avg_refs              nan                       # Average number of references to valid blocks.
system.cpu.dcache.ghosttags.warmup_cycle 5548516762500                       # Cycle when the warmup percentage was hit.
system.cpu.dcache.ghosttags.occ_blocks::.switch_cpus.data 8328735.528649                       # Average occupied blocks per requestor
system.cpu.dcache.ghosttags.occ_percent::.switch_cpus.data 260272.985270                       # Average percentage of cache occupancy
system.cpu.dcache.ghosttags.occ_percent::total 260272.985270                       # Average percentage of cache occupancy
system.cpu.dcache.ghosttags.tag_accesses     97945409                       # Number of tag accesses
system.cpu.dcache.ghosttags.data_accesses     97945409                       # Number of data accesses
system.cpu.dcache.ghosttags.repl_invalid            0                       # Number of initial replacements
system.cpu.dcache.ghosttags.repl_valid_tag            0                       # Number of local replacements
system.cpu.dcache.ghosttags.repl_valid_data            0                       # Number of global replacements
system.cpu.dcache.ghosttags.power_state.pwrStateResidencyTicks::UNDEFINED 6168383145000                       # Cumulative time (in ticks) in various power states
system.cpu.dcache.power_state.pwrStateResidencyTicks::UNDEFINED 6168383145000                       # Cumulative time (in ticks) in various power states
system.cpu.dcache.tags.tagsinuse         -8326667.541407                       # Cycle average of tags in use
system.cpu.dcache.tags.total_refs           710150160                       # Total number of references to valid blocks.
system.cpu.dcache.tags.sampled_refs          30987318                       # Sample count of references to valid blocks.
system.cpu.dcache.tags.avg_refs             22.917445                       # Average number of references to valid blocks.
system.cpu.dcache.tags.warmup_cycle      5548516518500                       # Cycle when the warmup percentage was hit.
system.cpu.dcache.tags.occ_blocks::.cpu.data     0.002863                       # Average occupied blocks per requestor
system.cpu.dcache.tags.occ_blocks::.switch_cpus.data -8326667.544270                       # Average occupied blocks per requestor
system.cpu.dcache.tags.occ_percent::.cpu.data     0.000006                       # Average percentage of cache occupancy
system.cpu.dcache.tags.occ_percent::.switch_cpus.data -16263.022547                       # Average percentage of cache occupancy
system.cpu.dcache.tags.occ_percent::total -16263.022542                       # Average percentage of cache occupancy
system.cpu.dcache.tags.occ_task_id_blocks::1024          512                       # Occupied blocks per task id
system.cpu.dcache.tags.age_task_id_blocks_1024::1          332                       # Occupied blocks per task id
system.cpu.dcache.tags.age_task_id_blocks_1024::2          164                       # Occupied blocks per task id
system.cpu.dcache.tags.age_task_id_blocks_1024::3            8                       # Occupied blocks per task id
system.cpu.dcache.tags.age_task_id_blocks_1024::4            8                       # Occupied blocks per task id
system.cpu.dcache.tags.occ_task_id_percent::1024            1                       # Percentage of cache occupancy per task id
system.cpu.dcache.tags.tag_accesses        5744144731                       # Number of tag accesses
system.cpu.dcache.tags.data_accesses       5744144731                       # Number of data accesses
system.cpu.dcache.tags.repl_invalid                 0                       # Number of initial replacements
system.cpu.dcache.tags.repl_valid_tag               0                       # Number of local replacements
system.cpu.dcache.tags.repl_valid_data              0                       # Number of global replacements
system.cpu.dcache.tags.power_state.pwrStateResidencyTicks::UNDEFINED 6168383145000                       # Cumulative time (in ticks) in various power states
system.cpu.dtb.instHits                             0                       # ITB inst hits
system.cpu.dtb.instMisses                           0                       # ITB inst misses
system.cpu.dtb.readHits                             0                       # DTB read hits
system.cpu.dtb.readMisses                           0                       # DTB read misses
system.cpu.dtb.writeHits                            0                       # DTB write hits
system.cpu.dtb.writeMisses                          0                       # DTB write misses
system.cpu.dtb.inserts                              0                       # Number of times an entry is inserted into the TLB
system.cpu.dtb.flushTlb                             2                       # Number of times complete TLB was flushed
system.cpu.dtb.flushTlbMva                          0                       # Number of times TLB was flushed by MVA
system.cpu.dtb.flushTlbMvaAsid                      0                       # Number of times TLB was flushed by MVA & ASID
system.cpu.dtb.flushTlbAsid                         0                       # Number of times TLB was flushed by ASID
system.cpu.dtb.flushedEntries                       0                       # Number of entries that have been flushed from TLB
system.cpu.dtb.alignFaults                          0                       # Number of TLB faults due to alignment restrictions
system.cpu.dtb.prefetchFaults                       0                       # Number of TLB faults due to prefetch
system.cpu.dtb.domainFaults                         0                       # Number of TLB faults due to domain restrictions
system.cpu.dtb.permsFaults                          0                       # Number of TLB faults due to permissions restrictions
system.cpu.dtb.readAccesses                         0                       # DTB read accesses
system.cpu.dtb.writeAccesses                        0                       # DTB write accesses
system.cpu.dtb.instAccesses                         0                       # ITB inst accesses
system.cpu.dtb.hits                                 0                       # Total TLB (inst and data) hits
system.cpu.dtb.misses                               0                       # Total TLB (inst and data) misses
system.cpu.dtb.accesses                             0                       # Total TLB (inst and data) accesses
system.cpu.dtb.stage2_mmu.stage2_tlb.instHits            0                       # ITB inst hits
system.cpu.dtb.stage2_mmu.stage2_tlb.instMisses            0                       # ITB inst misses
system.cpu.dtb.stage2_mmu.stage2_tlb.readHits            0                       # DTB read hits
system.cpu.dtb.stage2_mmu.stage2_tlb.readMisses            0                       # DTB read misses
system.cpu.dtb.stage2_mmu.stage2_tlb.writeHits            0                       # DTB write hits
system.cpu.dtb.stage2_mmu.stage2_tlb.writeMisses            0                       # DTB write misses
system.cpu.dtb.stage2_mmu.stage2_tlb.inserts            0                       # Number of times an entry is inserted into the TLB
system.cpu.dtb.stage2_mmu.stage2_tlb.flushTlb            0                       # Number of times complete TLB was flushed
system.cpu.dtb.stage2_mmu.stage2_tlb.flushTlbMva            0                       # Number of times TLB was flushed by MVA
system.cpu.dtb.stage2_mmu.stage2_tlb.flushTlbMvaAsid            0                       # Number of times TLB was flushed by MVA & ASID
system.cpu.dtb.stage2_mmu.stage2_tlb.flushTlbAsid            0                       # Number of times TLB was flushed by ASID
system.cpu.dtb.stage2_mmu.stage2_tlb.flushedEntries            0                       # Number of entries that have been flushed from TLB
system.cpu.dtb.stage2_mmu.stage2_tlb.alignFaults            0                       # Number of TLB faults due to alignment restrictions
system.cpu.dtb.stage2_mmu.stage2_tlb.prefetchFaults            0                       # Number of TLB faults due to prefetch
system.cpu.dtb.stage2_mmu.stage2_tlb.domainFaults            0                       # Number of TLB faults due to domain restrictions
system.cpu.dtb.stage2_mmu.stage2_tlb.permsFaults            0                       # Number of TLB faults due to permissions restrictions
system.cpu.dtb.stage2_mmu.stage2_tlb.readAccesses            0                       # DTB read accesses
system.cpu.dtb.stage2_mmu.stage2_tlb.writeAccesses            0                       # DTB write accesses
system.cpu.dtb.stage2_mmu.stage2_tlb.instAccesses            0                       # ITB inst accesses
system.cpu.dtb.stage2_mmu.stage2_tlb.hits            0                       # Total TLB (inst and data) hits
system.cpu.dtb.stage2_mmu.stage2_tlb.misses            0                       # Total TLB (inst and data) misses
system.cpu.dtb.stage2_mmu.stage2_tlb.accesses            0                       # Total TLB (inst and data) accesses
system.cpu.dtb.stage2_mmu.stage2_tlb.walker.walks            0                       # Table walker walks requested
system.cpu.dtb.stage2_mmu.stage2_tlb.walker.requestOrigin_Requested::Data            0                       # Table walker requests started/completed, data/inst
system.cpu.dtb.stage2_mmu.stage2_tlb.walker.requestOrigin_Requested::Inst            0                       # Table walker requests started/completed, data/inst
system.cpu.dtb.stage2_mmu.stage2_tlb.walker.requestOrigin_Requested::total            0                       # Table walker requests started/completed, data/inst
system.cpu.dtb.stage2_mmu.stage2_tlb.walker.requestOrigin_Completed::Data            0                       # Table walker requests started/completed, data/inst
system.cpu.dtb.stage2_mmu.stage2_tlb.walker.requestOrigin_Completed::Inst            0                       # Table walker requests started/completed, data/inst
system.cpu.dtb.stage2_mmu.stage2_tlb.walker.requestOrigin_Completed::total            0                       # Table walker requests started/completed, data/inst
system.cpu.dtb.stage2_mmu.stage2_tlb.walker.requestOrigin::total            0                       # Table walker requests started/completed, data/inst
system.cpu.dtb.stage2_mmu.stage2_tlb.walker.power_state.pwrStateResidencyTicks::UNDEFINED 6168383145000                       # Cumulative time (in ticks) in various power states
system.cpu.dtb.walker.walks                         0                       # Table walker walks requested
system.cpu.dtb.walker.requestOrigin_Requested::Data            0                       # Table walker requests started/completed, data/inst
system.cpu.dtb.walker.requestOrigin_Requested::Inst            0                       # Table walker requests started/completed, data/inst
system.cpu.dtb.walker.requestOrigin_Requested::total            0                       # Table walker requests started/completed, data/inst
system.cpu.dtb.walker.requestOrigin_Completed::Data            0                       # Table walker requests started/completed, data/inst
system.cpu.dtb.walker.requestOrigin_Completed::Inst            0                       # Table walker requests started/completed, data/inst
system.cpu.dtb.walker.requestOrigin_Completed::total            0                       # Table walker requests started/completed, data/inst
system.cpu.dtb.walker.requestOrigin::total            0                       # Table walker requests started/completed, data/inst
system.cpu.dtb.walker.power_state.pwrStateResidencyTicks::UNDEFINED 6168383145000                       # Cumulative time (in ticks) in various power states
system.cpu.icache.demand_hits::.cpu.inst           16                       # number of demand (read+write) hits
system.cpu.icache.demand_hits::.switch_cpus.inst    407893312                       # number of demand (read+write) hits
system.cpu.icache.demand_hits::total        407893328                       # number of demand (read+write) hits
system.cpu.icache.overall_hits::.cpu.inst           16                       # number of overall hits
system.cpu.icache.overall_hits::.switch_cpus.inst    407893312                       # number of overall hits
system.cpu.icache.overall_hits::total       407893328                       # number of overall hits
system.cpu.icache.demand_misses::.cpu.inst            4                       # number of demand (read+write) misses
system.cpu.icache.demand_misses::.switch_cpus.inst          428                       # number of demand (read+write) misses
system.cpu.icache.demand_misses::total            432                       # number of demand (read+write) misses
system.cpu.icache.overall_misses::.cpu.inst            4                       # number of overall misses
system.cpu.icache.overall_misses::.switch_cpus.inst          428                       # number of overall misses
system.cpu.icache.overall_misses::total           432                       # number of overall misses
system.cpu.icache.demand_miss_latency::.switch_cpus.inst     35469500                       # number of demand (read+write) miss cycles
system.cpu.icache.demand_miss_latency::total     35469500                       # number of demand (read+write) miss cycles
system.cpu.icache.overall_miss_latency::.switch_cpus.inst     35469500                       # number of overall miss cycles
system.cpu.icache.overall_miss_latency::total     35469500                       # number of overall miss cycles
system.cpu.icache.demand_accesses::.cpu.inst           20                       # number of demand (read+write) accesses
system.cpu.icache.demand_accesses::.switch_cpus.inst    407893740                       # number of demand (read+write) accesses
system.cpu.icache.demand_accesses::total    407893760                       # number of demand (read+write) accesses
system.cpu.icache.overall_accesses::.cpu.inst           20                       # number of overall (read+write) accesses
system.cpu.icache.overall_accesses::.switch_cpus.inst    407893740                       # number of overall (read+write) accesses
system.cpu.icache.overall_accesses::total    407893760                       # number of overall (read+write) accesses
system.cpu.icache.demand_miss_rate::.cpu.inst     0.200000                       # miss rate for demand accesses
system.cpu.icache.demand_miss_rate::.switch_cpus.inst     0.000001                       # miss rate for demand accesses
system.cpu.icache.demand_miss_rate::total     0.000001                       # miss rate for demand accesses
system.cpu.icache.overall_miss_rate::.cpu.inst     0.200000                       # miss rate for overall accesses
system.cpu.icache.overall_miss_rate::.switch_cpus.inst     0.000001                       # miss rate for overall accesses
system.cpu.icache.overall_miss_rate::total     0.000001                       # miss rate for overall accesses
system.cpu.icache.demand_avg_miss_latency::.switch_cpus.inst 82872.663551                       # average overall miss latency
system.cpu.icache.demand_avg_miss_latency::total 82105.324074                       # average overall miss latency
system.cpu.icache.overall_avg_miss_latency::.switch_cpus.inst 82872.663551                       # average overall miss latency
system.cpu.icache.overall_avg_miss_latency::total 82105.324074                       # average overall miss latency
system.cpu.icache.blocked_cycles::no_mshrs           76                       # number of cycles access was blocked
system.cpu.icache.blocked_cycles::no_targets            0                       # number of cycles access was blocked
system.cpu.icache.blocked::no_mshrs                 1                       # number of cycles access was blocked
system.cpu.icache.blocked::no_targets               0                       # number of cycles access was blocked
system.cpu.icache.avg_blocked_cycles::no_mshrs           76                       # average number of cycles each access was blocked
system.cpu.icache.avg_blocked_cycles::no_targets          nan                       # average number of cycles each access was blocked
system.cpu.icache.ghost_timestamp_misses            0                       # number of times timestamp policy causes a block to be inaccessible
system.cpu.icache.ghost_commits                   110                       # number of cache lines moved from ghost to main
system.cpu.icache.same_leapfrogs                    0                       # number of times leapfrogging occurs with a shared MSHR request
system.cpu.icache.writebacks::.writebacks          110                       # number of writebacks
system.cpu.icache.writebacks::total               110                       # number of writebacks
system.cpu.icache.demand_mshr_hits::.switch_cpus.inst           64                       # number of demand (read+write) MSHR hits
system.cpu.icache.demand_mshr_hits::total           64                       # number of demand (read+write) MSHR hits
system.cpu.icache.overall_mshr_hits::.switch_cpus.inst           64                       # number of overall MSHR hits
system.cpu.icache.overall_mshr_hits::total           64                       # number of overall MSHR hits
system.cpu.icache.demand_mshr_misses::.switch_cpus.inst          364                       # number of demand (read+write) MSHR misses
system.cpu.icache.demand_mshr_misses::total          364                       # number of demand (read+write) MSHR misses
system.cpu.icache.overall_mshr_misses::.switch_cpus.inst          364                       # number of overall MSHR misses
system.cpu.icache.overall_mshr_misses::total          364                       # number of overall MSHR misses
system.cpu.icache.demand_mshr_miss_latency::.switch_cpus.inst     30917500                       # number of demand (read+write) MSHR miss cycles
system.cpu.icache.demand_mshr_miss_latency::total     30917500                       # number of demand (read+write) MSHR miss cycles
system.cpu.icache.overall_mshr_miss_latency::.switch_cpus.inst     30917500                       # number of overall MSHR miss cycles
system.cpu.icache.overall_mshr_miss_latency::total     30917500                       # number of overall MSHR miss cycles
system.cpu.icache.demand_mshr_miss_rate::.switch_cpus.inst     0.000001                       # mshr miss rate for demand accesses
system.cpu.icache.demand_mshr_miss_rate::total     0.000001                       # mshr miss rate for demand accesses
system.cpu.icache.overall_mshr_miss_rate::.switch_cpus.inst     0.000001                       # mshr miss rate for overall accesses
system.cpu.icache.overall_mshr_miss_rate::total     0.000001                       # mshr miss rate for overall accesses
system.cpu.icache.demand_avg_mshr_miss_latency::.switch_cpus.inst 84938.186813                       # average overall mshr miss latency
system.cpu.icache.demand_avg_mshr_miss_latency::total 84938.186813                       # average overall mshr miss latency
system.cpu.icache.overall_avg_mshr_miss_latency::.switch_cpus.inst 84938.186813                       # average overall mshr miss latency
system.cpu.icache.overall_avg_mshr_miss_latency::total 84938.186813                       # average overall mshr miss latency
system.cpu.icache.replacements                      0                       # number of replacements
system.cpu.icache.ReadReq_hits::.cpu.inst           16                       # number of ReadReq hits
system.cpu.icache.ReadReq_hits::.switch_cpus.inst    407893312                       # number of ReadReq hits
system.cpu.icache.ReadReq_hits::total       407893328                       # number of ReadReq hits
system.cpu.icache.ReadReq_misses::.cpu.inst            4                       # number of ReadReq misses
system.cpu.icache.ReadReq_misses::.switch_cpus.inst          428                       # number of ReadReq misses
system.cpu.icache.ReadReq_misses::total           432                       # number of ReadReq misses
system.cpu.icache.ReadReq_miss_latency::.switch_cpus.inst     35469500                       # number of ReadReq miss cycles
system.cpu.icache.ReadReq_miss_latency::total     35469500                       # number of ReadReq miss cycles
system.cpu.icache.ReadReq_accesses::.cpu.inst           20                       # number of ReadReq accesses(hits+misses)
system.cpu.icache.ReadReq_accesses::.switch_cpus.inst    407893740                       # number of ReadReq accesses(hits+misses)
system.cpu.icache.ReadReq_accesses::total    407893760                       # number of ReadReq accesses(hits+misses)
system.cpu.icache.ReadReq_miss_rate::.cpu.inst     0.200000                       # miss rate for ReadReq accesses
system.cpu.icache.ReadReq_miss_rate::.switch_cpus.inst     0.000001                       # miss rate for ReadReq accesses
system.cpu.icache.ReadReq_miss_rate::total     0.000001                       # miss rate for ReadReq accesses
system.cpu.icache.ReadReq_avg_miss_latency::.switch_cpus.inst 82872.663551                       # average ReadReq miss latency
system.cpu.icache.ReadReq_avg_miss_latency::total 82105.324074                       # average ReadReq miss latency
system.cpu.icache.ReadReq_mshr_hits::.switch_cpus.inst           64                       # number of ReadReq MSHR hits
system.cpu.icache.ReadReq_mshr_hits::total           64                       # number of ReadReq MSHR hits
system.cpu.icache.ReadReq_mshr_misses::.switch_cpus.inst          364                       # number of ReadReq MSHR misses
system.cpu.icache.ReadReq_mshr_misses::total          364                       # number of ReadReq MSHR misses
system.cpu.icache.ReadReq_mshr_miss_latency::.switch_cpus.inst     30917500                       # number of ReadReq MSHR miss cycles
system.cpu.icache.ReadReq_mshr_miss_latency::total     30917500                       # number of ReadReq MSHR miss cycles
system.cpu.icache.ReadReq_mshr_miss_rate::.switch_cpus.inst     0.000001                       # mshr miss rate for ReadReq accesses
system.cpu.icache.ReadReq_mshr_miss_rate::total     0.000001                       # mshr miss rate for ReadReq accesses
system.cpu.icache.ReadReq_avg_mshr_miss_latency::.switch_cpus.inst 84938.186813                       # average ReadReq mshr miss latency
system.cpu.icache.ReadReq_avg_mshr_miss_latency::total 84938.186813                       # average ReadReq mshr miss latency
system.cpu.icache.ghosttags.tagsinuse        0.000069                       # Cycle average of tags in use
system.cpu.icache.ghosttags.total_refs              0                       # Total number of references to valid blocks.
system.cpu.icache.ghosttags.sampled_refs            0                       # Sample count of references to valid blocks.
system.cpu.icache.ghosttags.avg_refs              nan                       # Average number of references to valid blocks.
system.cpu.icache.ghosttags.warmup_cycle 5548516746500                       # Cycle when the warmup percentage was hit.
system.cpu.icache.ghosttags.occ_blocks::.switch_cpus.inst   279.942547                       # Average occupied blocks per requestor
system.cpu.icache.ghosttags.occ_percent::.switch_cpus.inst     8.748205                       # Average percentage of cache occupancy
system.cpu.icache.ghosttags.occ_percent::total     8.748205                       # Average percentage of cache occupancy
system.cpu.icache.ghosttags.tag_accesses         1337                       # Number of tag accesses
system.cpu.icache.ghosttags.data_accesses         1337                       # Number of data accesses
system.cpu.icache.ghosttags.repl_invalid            0                       # Number of initial replacements
system.cpu.icache.ghosttags.repl_valid_tag            0                       # Number of local replacements
system.cpu.icache.ghosttags.repl_valid_data            0                       # Number of global replacements
system.cpu.icache.ghosttags.power_state.pwrStateResidencyTicks::UNDEFINED 6168383145000                       # Cumulative time (in ticks) in various power states
system.cpu.icache.power_state.pwrStateResidencyTicks::UNDEFINED 6168383145000                       # Cumulative time (in ticks) in various power states
system.cpu.icache.tags.tagsinuse          -173.876394                       # Cycle average of tags in use
system.cpu.icache.tags.total_refs           407893806                       # Total number of references to valid blocks.
system.cpu.icache.tags.sampled_refs               478                       # Sample count of references to valid blocks.
system.cpu.icache.tags.avg_refs          853334.322176                       # Average number of references to valid blocks.
system.cpu.icache.tags.warmup_cycle      5548516518500                       # Cycle when the warmup percentage was hit.
system.cpu.icache.tags.occ_blocks::.cpu.inst     4.000000                       # Average occupied blocks per requestor
system.cpu.icache.tags.occ_blocks::.switch_cpus.inst  -177.876394                       # Average occupied blocks per requestor
system.cpu.icache.tags.occ_percent::.cpu.inst     0.007812                       # Average percentage of cache occupancy
system.cpu.icache.tags.occ_percent::.switch_cpus.inst    -0.347415                       # Average percentage of cache occupancy
system.cpu.icache.tags.occ_percent::total    -0.339602                       # Average percentage of cache occupancy
system.cpu.icache.tags.occ_task_id_blocks::1024          115                       # Occupied blocks per task id
system.cpu.icache.tags.age_task_id_blocks_1024::4          115                       # Occupied blocks per task id
system.cpu.icache.tags.occ_task_id_percent::1024     0.224609                       # Percentage of cache occupancy per task id
system.cpu.icache.tags.tag_accesses        3263150195                       # Number of tag accesses
system.cpu.icache.tags.data_accesses       3263150195                       # Number of data accesses
system.cpu.icache.tags.repl_invalid                 0                       # Number of initial replacements
system.cpu.icache.tags.repl_valid_tag               0                       # Number of local replacements
system.cpu.icache.tags.repl_valid_data              0                       # Number of global replacements
system.cpu.icache.tags.power_state.pwrStateResidencyTicks::UNDEFINED 6168383145000                       # Cumulative time (in ticks) in various power states
system.cpu.itb.instHits                             0                       # ITB inst hits
system.cpu.itb.instMisses                           0                       # ITB inst misses
system.cpu.itb.readHits                             0                       # DTB read hits
system.cpu.itb.readMisses                           0                       # DTB read misses
system.cpu.itb.writeHits                            0                       # DTB write hits
system.cpu.itb.writeMisses                          0                       # DTB write misses
system.cpu.itb.inserts                              0                       # Number of times an entry is inserted into the TLB
system.cpu.itb.flushTlb                             2                       # Number of times complete TLB was flushed
system.cpu.itb.flushTlbMva                          0                       # Number of times TLB was flushed by MVA
system.cpu.itb.flushTlbMvaAsid                      0                       # Number of times TLB was flushed by MVA & ASID
system.cpu.itb.flushTlbAsid                         0                       # Number of times TLB was flushed by ASID
system.cpu.itb.flushedEntries                       0                       # Number of entries that have been flushed from TLB
system.cpu.itb.alignFaults                          0                       # Number of TLB faults due to alignment restrictions
system.cpu.itb.prefetchFaults                       0                       # Number of TLB faults due to prefetch
system.cpu.itb.domainFaults                         0                       # Number of TLB faults due to domain restrictions
system.cpu.itb.permsFaults                          0                       # Number of TLB faults due to permissions restrictions
system.cpu.itb.readAccesses                         0                       # DTB read accesses
system.cpu.itb.writeAccesses                        0                       # DTB write accesses
system.cpu.itb.instAccesses                         0                       # ITB inst accesses
system.cpu.itb.hits                                 0                       # Total TLB (inst and data) hits
system.cpu.itb.misses                               0                       # Total TLB (inst and data) misses
system.cpu.itb.accesses                             0                       # Total TLB (inst and data) accesses
system.cpu.itb.stage2_mmu.stage2_tlb.instHits            0                       # ITB inst hits
system.cpu.itb.stage2_mmu.stage2_tlb.instMisses            0                       # ITB inst misses
system.cpu.itb.stage2_mmu.stage2_tlb.readHits            0                       # DTB read hits
system.cpu.itb.stage2_mmu.stage2_tlb.readMisses            0                       # DTB read misses
system.cpu.itb.stage2_mmu.stage2_tlb.writeHits            0                       # DTB write hits
system.cpu.itb.stage2_mmu.stage2_tlb.writeMisses            0                       # DTB write misses
system.cpu.itb.stage2_mmu.stage2_tlb.inserts            0                       # Number of times an entry is inserted into the TLB
system.cpu.itb.stage2_mmu.stage2_tlb.flushTlb            0                       # Number of times complete TLB was flushed
system.cpu.itb.stage2_mmu.stage2_tlb.flushTlbMva            0                       # Number of times TLB was flushed by MVA
system.cpu.itb.stage2_mmu.stage2_tlb.flushTlbMvaAsid            0                       # Number of times TLB was flushed by MVA & ASID
system.cpu.itb.stage2_mmu.stage2_tlb.flushTlbAsid            0                       # Number of times TLB was flushed by ASID
system.cpu.itb.stage2_mmu.stage2_tlb.flushedEntries            0                       # Number of entries that have been flushed from TLB
[...]
system.switch_cpus.fetch.branches           529455927                       # Number of branches that fetch encountered
system.switch_cpus.fetch.predictedBranches    298195238                       # Number of branches that fetch has predicted taken
system.switch_cpus.fetch.cycles             795100205                       # Number of cycles fetch has run and was not squashing or blocked
system.switch_cpus.fetch.squashCycles        58078632                       # Number of cycles fetch has spent squashing
system.switch_cpus.fetch.miscStallCycles           36                       # Number of cycles fetch has spent waiting on interrupts,or bad addresses, or out of MSHRs
system.switch_cpus.fetch.pendingTrapStallCycles          423                       # Number of stall cycles due to pending traps
system.switch_cpus.fetch.cacheLines         407893740                       # Number of cache lines fetched
system.switch_cpus.fetch.icacheSquashes       5598942                       # Number of outstanding Icache misses that were squashed
system.switch_cpus.fetch.nisnDist::samples   1239711747                       # Number of instructions fetched each cycle (Total)
system.switch_cpus.fetch.nisnDist::mean      2.749196                       # Number of instructions fetched each cycle (Total)
system.switch_cpus.fetch.nisnDist::stdev     3.102780                       # Number of instructions fetched each cycle (Total)
system.switch_cpus.fetch.nisnDist::underflows            0      0.00%      0.00% # Number of instructions fetched each cycle (Total)
system.switch_cpus.fetch.nisnDist::0        565650568     45.63%     45.63% # Number of instructions fetched each cycle (Total)
system.switch_cpus.fetch.nisnDist::1         38603091      3.11%     48.74% # Number of instructions fetched each cycle (Total)
system.switch_cpus.fetch.nisnDist::2         81178478      6.55%     55.29% # Number of instructions fetched each cycle (Total)
system.switch_cpus.fetch.nisnDist::3         98197237      7.92%     63.21% # Number of instructions fetched each cycle (Total)
system.switch_cpus.fetch.nisnDist::4        139390430     11.24%     74.45% # Number of instructions fetched each cycle (Total)
system.switch_cpus.fetch.nisnDist::5         28596757      2.31%     76.76% # Number of instructions fetched each cycle (Total)
system.switch_cpus.fetch.nisnDist::6         32107425      2.59%     79.35% # Number of instructions fetched each cycle (Total)
system.switch_cpus.fetch.nisnDist::7         28432939      2.29%     81.64% # Number of instructions fetched each cycle (Total)
system.switch_cpus.fetch.nisnDist::8        227554822     18.36%    100.00% # Number of instructions fetched each cycle (Total)
system.switch_cpus.fetch.nisnDist::overflows            0      0.00%    100.00% # Number of instructions fetched each cycle (Total)
system.switch_cpus.fetch.nisnDist::min_value            0                       # Number of instructions fetched each cycle (Total)
system.switch_cpus.fetch.nisnDist::max_value            8                       # Number of instructions fetched each cycle (Total)
system.switch_cpus.fetch.nisnDist::total   1239711747                       # Number of instructions fetched each cycle (Total)
system.switch_cpus.fetch.branchRate          0.427072                       # Number of branch fetches per cycle
system.switch_cpus.fetch.rate                2.545896                       # Number of inst fetches per cycle
system.switch_cpus.itb.instHits                     0                       # ITB inst hits
system.switch_cpus.itb.instMisses                   0                       # ITB inst misses
system.switch_cpus.itb.readHits                     0                       # DTB read hits
system.switch_cpus.itb.readMisses                   0                       # DTB read misses
system.switch_cpus.itb.writeHits                    0                       # DTB write hits
system.switch_cpus.itb.writeMisses                  0                       # DTB write misses
system.switch_cpus.itb.inserts                      0                       # Number of times an entry is inserted into the TLB
system.switch_cpus.itb.flushTlb                     0                       # Number of times complete TLB was flushed
system.switch_cpus.itb.flushTlbMva                  0                       # Number of times TLB was flushed by MVA
system.switch_cpus.itb.flushTlbMvaAsid              0                       # Number of times TLB was flushed by MVA & ASID
system.switch_cpus.itb.flushTlbAsid                 0                       # Number of times TLB was flushed by ASID
system.switch_cpus.itb.flushedEntries               0                       # Number of entries that have been flushed from TLB
system.switch_cpus.itb.alignFaults                  0                       # Number of TLB faults due to alignment restrictions
system.switch_cpus.itb.prefetchFaults               0                       # Number of TLB faults due to prefetch
system.switch_cpus.itb.domainFaults                 0                       # Number of TLB faults due to domain restrictions
system.switch_cpus.itb.permsFaults                  0                       # Number of TLB faults due to permissions restrictions
system.switch_cpus.itb.readAccesses                 0                       # DTB read accesses
system.switch_cpus.itb.writeAccesses                0                       # DTB write accesses
system.switch_cpus.itb.instAccesses                 0                       # ITB inst accesses
system.switch_cpus.itb.hits                         0                       # Total TLB (inst and data) hits
system.switch_cpus.itb.misses                       0                       # Total TLB (inst and data) misses
system.switch_cpus.itb.accesses                     0                       # Total TLB (inst and data) accesses
system.switch_cpus.itb.stage2_mmu.stage2_tlb.instHits            0                       # ITB inst hits
system.switch_cpus.itb.stage2_mmu.stage2_tlb.instMisses            0                       # ITB inst misses
system.switch_cpus.itb.stage2_mmu.stage2_tlb.readHits            0                       # DTB read hits
system.switch_cpus.itb.stage2_mmu.stage2_tlb.readMisses            0                       # DTB read misses
system.switch_cpus.itb.stage2_mmu.stage2_tlb.writeHits            0                       # DTB write hits
system.switch_cpus.itb.stage2_mmu.stage2_tlb.writeMisses            0                       # DTB write misses
system.switch_cpus.itb.stage2_mmu.stage2_tlb.inserts            0                       # Number of times an entry is inserted into the TLB
system.switch_cpus.itb.stage2_mmu.stage2_tlb.flushTlb            0                       # Number of times complete TLB was flushed
system.switch_cpus.itb.stage2_mmu.stage2_tlb.flushTlbMva            0                       # Number of times TLB was flushed by MVA
system.switch_cpus.itb.stage2_mmu.stage2_tlb.flushTlbMvaAsid            0                       # Number of times TLB was flushed by MVA & ASID
system.switch_cpus.itb.stage2_mmu.stage2_tlb.flushTlbAsid            0                       # Number of times TLB was flushed by ASID
system.switch_cpus.itb.stage2_mmu.stage2_tlb.flushedEntries            0                       # Number of entries that have been flushed from TLB
system.switch_cpus.itb.stage2_mmu.stage2_tlb.alignFaults            0                       # Number of TLB faults due to alignment restrictions
system.switch_cpus.itb.stage2_mmu.stage2_tlb.prefetchFaults            0                       # Number of TLB faults due to prefetch
system.switch_cpus.itb.stage2_mmu.stage2_tlb.domainFaults            0                       # Number of TLB faults due to domain restrictions
system.switch_cpus.itb.stage2_mmu.stage2_tlb.permsFaults            0                       # Number of TLB faults due to permissions restrictions
system.switch_cpus.itb.stage2_mmu.stage2_tlb.readAccesses            0                       # DTB read accesses
system.switch_cpus.itb.stage2_mmu.stage2_tlb.writeAccesses            0                       # DTB write accesses
system.switch_cpus.itb.stage2_mmu.stage2_tlb.instAccesses            0                       # ITB inst accesses
system.switch_cpus.itb.stage2_mmu.stage2_tlb.hits            0                       # Total TLB (inst and data) hits
system.switch_cpus.itb.stage2_mmu.stage2_tlb.misses            0                       # Total TLB (inst and data) misses
system.switch_cpus.itb.stage2_mmu.stage2_tlb.accesses            0                       # Total TLB (inst and data) accesses
system.switch_cpus.itb.stage2_mmu.stage2_tlb.walker.walks            0                       # Table walker walks requested
system.switch_cpus.itb.stage2_mmu.stage2_tlb.walker.requestOrigin_Requested::Data            0                       # Table walker requests started/completed, data/inst
system.switch_cpus.itb.stage2_mmu.stage2_tlb.walker.requestOrigin_Requested::Inst            0                       # Table walker requests started/completed, data/inst
system.switch_cpus.itb.stage2_mmu.stage2_tlb.walker.requestOrigin_Requested::total            0                       # Table walker requests started/completed, data/inst
system.switch_cpus.itb.stage2_mmu.stage2_tlb.walker.requestOrigin_Completed::Data            0                       # Table walker requests started/completed, data/inst
system.switch_cpus.itb.stage2_mmu.stage2_tlb.walker.requestOrigin_Completed::Inst            0                       # Table walker requests started/completed, data/inst
system.switch_cpus.itb.stage2_mmu.stage2_tlb.walker.requestOrigin_Completed::total            0                       # Table walker requests started/completed, data/inst
system.switch_cpus.itb.stage2_mmu.stage2_tlb.walker.requestOrigin::total            0                       # Table walker requests started/completed, data/inst
system.switch_cpus.itb.stage2_mmu.stage2_tlb.walker.power_state.pwrStateResidencyTicks::UNDEFINED 6168383145000                       # Cumulative time (in ticks) in various power states
system.switch_cpus.itb.walker.walks                 0                       # Table walker walks requested
system.switch_cpus.itb.walker.requestOrigin_Requested::Data            0                       # Table walker requests started/completed, data/inst
system.switch_cpus.itb.walker.requestOrigin_Requested::Inst            0                       # Table walker requests started/completed, data/inst
system.switch_cpus.itb.walker.requestOrigin_Requested::total            0                       # Table walker requests started/completed, data/inst
system.switch_cpus.itb.walker.requestOrigin_Completed::Data            0                       # Table walker requests started/completed, data/inst
system.switch_cpus.itb.walker.requestOrigin_Completed::Inst            0                       # Table walker requests started/completed, data/inst
system.switch_cpus.itb.walker.requestOrigin_Completed::total            0                       # Table walker requests started/completed, data/inst
system.switch_cpus.itb.walker.requestOrigin::total            0                       # Table walker requests started/completed, data/inst
system.switch_cpus.itb.walker.power_state.pwrStateResidencyTicks::UNDEFINED 6168383145000                       # Cumulative time (in ticks) in various power states
system.switch_cpus.lsq0.forwLoads            34428074                       # Number of loads that had data forwarded from stores
system.switch_cpus.lsq0.squashedLoads       142886227                       # Number of loads squashed
system.switch_cpus.lsq0.ignoredResponses       105119                       # Number of memory responses ignored because the instruction is squashed
system.switch_cpus.lsq0.memOrderViolation        25008                       # Number of memory ordering violations
system.switch_cpus.lsq0.squashedStores       63347105                       # Number of stores squashed
system.switch_cpus.lsq0.rescheduledLoads     30779894                       # Number of loads that were rescheduled
system.switch_cpus.lsq0.blockedByCache         184419                       # Number of times an access to memory failed due to the cache being blocked
system.switch_cpus.power_state.pwrStateResidencyTicks::OFF 619866627000                       # Cumulative time (in ticks) in various power states
system.switch_cpus.rename.squashCycles       29039239                       # Number of cycles rename is squashing
system.switch_cpus.rename.idleCycles        344209937                       # Number of cycles rename is idle
system.switch_cpus.rename.blockCycles       152928712                       # Number of cycles rename is blocking
system.switch_cpus.rename.serializeStallCycles       221338                       # count of cycles rename stalledfor serializing inst
system.switch_cpus.rename.runCycles         549177829                       # Number of cycles rename is running
system.switch_cpus.rename.unblockCycles     164134689                       # Number of cycles rename is unblocking
system.switch_cpus.rename.renamedInsts     3189801446                       # Number of instructions processed by rename
system.switch_cpus.rename.ROBFullEvents        380860                       # Number of times rename has blocked due to ROB full
system.switch_cpus.rename.IQFullEvents        5698336                       # Number of times rename has blocked due to IQ full
system.switch_cpus.rename.LQFullEvents       71867519                       # Number of times rename has blocked due to LQ full
system.switch_cpus.rename.SQFullEvents       69473820                       # Number of times rename has blocked due to SQ full
system.switch_cpus.rename.renamedOperands   3740554541                       # Number of destination operands rename has renamed
system.switch_cpus.rename.lookups          6649948478                       # Number of register rename lookups that rename has made
system.switch_cpus.rename.intLookups       4155267709                       # Number of integer rename lookups
system.switch_cpus.rename.vecLookups        441284745                       # Number of vector rename lookups
system.switch_cpus.rename.committedMaps    2529400890                       # Number of HB maps that are committed
system.switch_cpus.rename.undoneMaps       1211153604                       # Number of HB maps that are undone due to squashing
system.switch_cpus.rename.serializing            3138                       # count of serializing insts renamed
system.switch_cpus.rename.tempSerializing           64                       # count of temporary serializing insts renamed
system.switch_cpus.rename.skidInsts         208257987                       # count of insts added to the skid buffer
system.switch_cpus.rob.reads               3980407915                       # The number of ROB reads
system.switch_cpus.rob.writes              6133003152                       # The number of ROB writes
system.switch_cpus.thread0.numInsts        2000000004                       # Number of Instructions committed
system.switch_cpus.thread0.numOps          2183267834                       # Number of Ops committed
system.switch_cpus.thread0.numMemRefs               0                       # Number of Memory References
system.tol2bus.trans_dist::ReadResp          16418762                       # Transaction distribution
system.tol2bus.trans_dist::WritebackDirty      1186764                       # Transaction distribution
system.tol2bus.trans_dist::WritebackClean     13570205                       # Transaction distribution
system.tol2bus.trans_dist::CleanEvict         2811978                       # Transaction distribution
system.tol2bus.trans_dist::HardPFReq           370662                       # Transaction distribution
system.tol2bus.trans_dist::UpgradeReq          332043                       # Transaction distribution
system.tol2bus.trans_dist::UpgradeResp         332043                       # Transaction distribution
system.tol2bus.trans_dist::ReadExReq           674408                       # Transaction distribution
system.tol2bus.trans_dist::ReadExResp          674408                       # Transaction distribution
system.tol2bus.trans_dist::ReadCleanReq      16418758                       # Transaction distribution
system.tol2bus.trans_dist::ReadSharedReq            4                       # Transaction distribution
system.tol2bus.trans_dist::InvalidateReq         1599                       # Transaction distribution
system.tol2bus.trans_dist::InvalidateResp         1599                       # Transaction distribution
system.tol2bus.pkt_count_system.cpu.icache.mem_side_port::system.l2.cpu_side_port          989                       # Packet count per connected requestor and responder (bytes)
system.tol2bus.pkt_count_system.cpu.dcache.mem_side_port::system.l2.cpu_side_port     51943239                       # Packet count per connected requestor and responder (bytes)
system.tol2bus.pkt_count::total              51944228                       # Packet count per connected requestor and responder (bytes)
system.tol2bus.pkt_size_system.cpu.icache.mem_side_port::system.l2.cpu_side_port        23552                       # Cumulative packet size per connected requestor and responder (bytes)
system.tol2bus.pkt_size_system.cpu.dcache.mem_side_port::system.l2.cpu_side_port   2026936128                       # Cumulative packet size per connected requestor and responder (bytes)
system.tol2bus.pkt_size::total             2026959680                       # Cumulative packet size per connected requestor and responder (bytes)
system.tol2bus.snoops                          849005                       # Total snoops (count)
system.tol2bus.snoopTraffic                  11449216                       # Total snoop traffic (bytes)
system.tol2bus.snoop_fanout::samples         18275817                       # Request fanout histogram
system.tol2bus.snoop_fanout::mean            0.014429                       # Request fanout histogram
system.tol2bus.snoop_fanout::stdev           0.119251                       # Request fanout histogram
system.tol2bus.snoop_fanout::underflows             0      0.00%      0.00% # Request fanout histogram
system.tol2bus.snoop_fanout::0               18012115     98.56%     98.56% # Request fanout histogram
system.tol2bus.snoop_fanout::1                 263702      1.44%    100.00% # Request fanout histogram
system.tol2bus.snoop_fanout::2                      0      0.00%    100.00% # Request fanout histogram
system.tol2bus.snoop_fanout::overflows              0      0.00%    100.00% # Request fanout histogram
system.tol2bus.snoop_fanout::min_value              0                       # Request fanout histogram
system.tol2bus.snoop_fanout::max_value              1                       # Request fanout histogram
system.tol2bus.snoop_fanout::total           18275817                       # Request fanout histogram
system.tol2bus.power_state.pwrStateResidencyTicks::UNDEFINED 6168383145000                       # Cumulative time (in ticks) in various power states
system.tol2bus.reqLayer0.occupancy        39026602537                       # Layer occupancy (ticks)
system.tol2bus.reqLayer0.utilization              6.3                       # Layer utilization (%)
system.tol2bus.respLayer0.occupancy            546998                       # Layer occupancy (ticks)
system.tol2bus.respLayer0.utilization             0.0                       # Layer utilization (%)
system.tol2bus.respLayer1.occupancy       25806019500                       # Layer occupancy (ticks)
system.tol2bus.respLayer1.utilization             4.2                       # Layer utilization (%)
system.voltage_domain.voltage                       1                       # Voltage in Volts

---------- End Simulation Statistics   ----------
