
---------- Begin Simulation Statistics ----------
final_tick                               5845784647500                       # Number of ticks from beginning of simulation (restored from checkpoints and never reset)
host_inst_rate                                 595754                       # Simulator instruction rate (inst/s)
host_mem_usage                               18151408                       # Number of bytes of host memory used
host_op_rate                                   640073                       # Simulator op (including micro ops) rate (op/s)
host_seconds                                  3357.09                       # Real time elapsed on the host
host_tick_rate                              151768776                       # Simulator tick rate (ticks/s)
sim_freq                                 1000000000000                       # Frequency of simulated ticks
sim_insts                                  2000000020                       # Number of instructions simulated
sim_ops                                    2148782989                       # Number of ops (including micro ops) simulated
sim_seconds                                  0.509502                       # Number of seconds simulated
sim_ticks                                509501560500                       # Number of ticks simulated
system.cpu.Branches                                 3                       # Number of branches fetched
system.cpu.committedInsts                          20                       # Number of instructions committed
system.cpu.committedOps                            20                       # Number of ops (including micro ops) committed
system.cpu.dcache.MSHRs.leapFrogMisses           2072                       # number of false blocks from MSHR
system.cpu.icache.MSHRs.leapFrogMisses              0                       # number of false blocks from MSHR
system.cpu.idle_fraction                            0                       # Percentage of idle cycles
system.cpu.not_idle_fraction                        1                       # Percentage of non-idle cycles
system.cpu.numCycles                               20                       # number of cpu cycles simulated
system.cpu.numWorkItemsCompleted                    0                       # number of work items this cpu completed
system.cpu.numWorkItemsStarted                      0                       # number of work items this cpu started
system.cpu.num_busy_cycles                         20                       # Number of busy cycles
system.cpu.num_cc_register_reads                   12                       # number of times the CC registers were read
system.cpu.num_cc_register_writes                   9                       # number of times the CC registers were written
system.cpu.num_conditional_control_insts            1                       # number of instructions that are conditional controls
system.cpu.num_fp_alu_accesses                      0                       # Number of float alu accesses
system.cpu.num_fp_insts                             0                       # number of float instructions
system.cpu.num_fp_register_reads                    0                       # number of times the floating registers were read
system.cpu.num_fp_register_writes                   0                       # number of times the floating registers were written
system.cpu.num_func_calls                           2                       # number of times a function call or return occured
system.cpu.num_idle_cycles                          0                       # Number of idle cycles
system.cpu.num_int_alu_accesses                    20                       # Number of integer alu accesses
system.cpu.num_int_insts                           20                       # number of integer instructions
system.cpu.num_int_register_reads                  31                       # number of times the integer registers were read
system.cpu.num_int_register_writes                 18                       # number of times the integer registers were written
system.cpu.num_load_insts                           5                       # Number of load instructions
system.cpu.num_mem_refs                             5                       # number of memory refs
system.cpu.num_store_insts                          0                       # Number of store instructions
system.cpu.num_vec_alu_accesses                     0                       # Number of vector alu accesses
system.cpu.num_vec_insts                            0                       # number of vector instructions
system.cpu.num_vec_register_reads                   0                       # number of times the vector registers were read
system.cpu.num_vec_register_writes                  0                       # number of times the vector registers were written
system.cpu.op_class::No_OpClass                     0      0.00%      0.00% # Class of executed instruction
system.cpu.op_class::IntAlu                        14     70.00%     70.00% # Class of executed instruction
system.cpu.op_class::IntMult                        1      5.00%     75.00% # Class of executed instruction
system.cpu.op_class::IntDiv                         0      0.00%     75.00% # Class of executed instruction
system.cpu.op_class::FloatAdd                       0      0.00%     75.00% # Class of executed instruction
system.cpu.op_class::FloatCmp                       0      0.00%     75.00% # Class of executed instruction
system.cpu.op_class::FloatCvt                       0      0.00%     75.00% # Class of executed instruction
system.cpu.op_class::FloatMult                      0      0.00%     75.00% # Class of executed instruction
system.cpu.op_class::FloatMultAcc                   0      0.00%     75.00% # Class of executed instruction
system.cpu.op_class::FloatDiv                       0      0.00%     75.00% # Class of executed instruction
system.cpu.op_class::FloatMisc                      0      0.00%     75.00% # Class of executed instruction
system.cpu.op_class::FloatSqrt                      0      0.00%     75.00% # Class of executed instruction
system.cpu.op_class::SimdAdd                        0      0.00%     75.00% # Class of executed instruction
system.cpu.op_class::SimdAddAcc                     0      0.00%     75.00% # Class of executed instruction
system.cpu.op_class::SimdAlu                        0      0.00%     75.00% # Class of executed instruction
system.cpu.op_class::SimdCmp                        0      0.00%     75.00% # Class of executed instruction
system.cpu.op_class::SimdCvt                        0      0.00%     75.00% # Class of executed instruction
system.cpu.op_class::SimdMisc                       0      0.00%     75.00% # Class of executed instruction
system.cpu.op_class::SimdMult                       0      0.00%     75.00% # Class of executed instruction
system.cpu.op_class::SimdMultAcc                    0      0.00%     75.00% # Class of executed instruction
system.cpu.op_class::SimdShift                      0      0.00%     75.00% # Class of executed instruction
system.cpu.op_class::SimdShiftAcc                   0      0.00%     75.00% # Class of executed instruction
system.cpu.op_class::SimdDiv                        0      0.00%     75.00% # Class of executed instruction
system.cpu.op_class::SimdSqrt                       0      0.00%     75.00% # Class of executed instruction
system.cpu.op_class::SimdFloatAdd                   0      0.00%     75.00% # Class of executed instruction
system.cpu.op_class::SimdFloatAlu                   0      0.00%     75.00% # Class of executed instruction
system.cpu.op_class::SimdFloatCmp                   0      0.00%     75.00% # Class of executed instruction
system.cpu.op_class::SimdFloatCvt                   0      0.00%     75.00% # Class of executed instruction
system.cpu.op_class::SimdFloatDiv                   0      0.00%     75.00% # Class of executed instruction
system.cpu.op_class::SimdFloatMisc                  0      0.00%     75.00% # Class of executed instruction
system.cpu.op_class::SimdFloatMult                  0      0.00%     75.00% # Class of executed instruction
system.cpu.op_class::SimdFloatMultAcc               0      0.00%     75.00% # Class of executed instruction
system.cpu.op_class::SimdFloatSqrt                  0      0.00%     75.00% # Class of executed instruction
system.cpu.op_class::SimdReduceAdd                  0      0.00%     75.00% # Class of executed instruction
system.cpu.op_class::SimdReduceAlu                  0      0.00%     75.00% # Class of executed instruction
system.cpu.op_class::SimdReduceCmp                  0      0.00%     75.00% # Class of executed instruction
system.cpu.op_class::SimdFloatReduceAdd             0      0.00%     75.00% # Class of executed instruction
system.cpu.op_class::SimdFloatReduceCmp             0      0.00%     75.00% # Class of executed instruction
system.cpu.op_class::SimdAes                        0      0.00%     75.00% # Class of executed instruction
system.cpu.op_class::SimdAesMix                     0      0.00%     75.00% # Class of executed instruction
system.cpu.op_class::SimdSha1Hash                   0      0.00%     75.00% # Class of executed instruction
system.cpu.op_class::SimdSha1Hash2                  0      0.00%     75.00% # Class of executed instruction
system.cpu.op_class::SimdSha256Hash                 0      0.00%     75.00% # Class of executed instruction
system.cpu.op_class::SimdSha256Hash2                0      0.00%     75.00% # Class of executed instruction
system.cpu.op_class::SimdShaSigma2                  0      0.00%     75.00% # Class of executed instruction
system.cpu.op_class::SimdShaSigma3                  0      0.00%     75.00% # Class of executed instruction
system.cpu.op_class::SimdPredAlu                    0      0.00%     75.00% # Class of executed instruction
system.cpu.op_class::MemRead                        5     25.00%    100.00% # Class of executed instruction
system.cpu.op_class::MemWrite                       0      0.00%    100.00% # Class of executed instruction
system.cpu.op_class::FloatMemRead                   0      0.00%    100.00% # Class of executed instruction
system.cpu.op_class::FloatMemWrite                  0      0.00%    100.00% # Class of executed instruction
system.cpu.op_class::IprAccess                      0      0.00%    100.00% # Class of executed instruction
system.cpu.op_class::InstPrefetch                   0      0.00%    100.00% # Class of executed instruction
system.cpu.op_class::total                         20                       # Class of executed instruction
system.cpu.workload.numSyscalls                     6                       # Number of system calls
system.l2.MSHRs.leapFrogMisses                      0                       # number of false blocks from MSHR
system.membus.snoop_filter.hit_multi_requests            0                       # Number of requests hitting in the snoop filter with multiple (>1) holders of the requested data.
system.membus.snoop_filter.hit_multi_snoops            0                       # Number of snoops hitting in the snoop filter with multiple (>1) holders of the requested data.
system.membus.snoop_filter.hit_single_requests       391253                       # Number of requests hitting in the snoop filter with a single holder of the requested data.
system.membus.snoop_filter.hit_single_snoops            0                       # Number of snoops hitting in the snoop filter with a single holder of the requested data.
system.membus.snoop_filter.tot_requests        913722                       # Total number of requests made to the snoop filter.
system.membus.snoop_filter.tot_snoops               0                       # Total number of snoops made to the snoop filter.
system.switch_cpus.cc_regfile_reads         631873695                       # number of cc regfile reads
system.switch_cpus.cc_regfile_writes        598482798                       # number of cc regfile writes
system.switch_cpus.committedInsts          2000000000                       # Number of Instructions Simulated
system.switch_cpus.committedOps            2148782969                       # Number of Ops (including micro ops) Simulated
system.switch_cpus.cpi                       0.509502                       # CPI: Cycles Per Instruction
system.switch_cpus.cpi_total                 0.509502                       # CPI: Total CPI of All Threads
system.switch_cpus.idleCycles                 2011448                       # Total number of cycles that the CPU has spent unscheduled due to idling
system.switch_cpus.iew.branchMispredicts     20118502                       # Number of branch mispredicts detected at execute
system.switch_cpus.iew.exec_branches        310771695                       # Number of branches executed
system.switch_cpus.iew.exec_nop               4338652                       # number of nop insts executed
system.switch_cpus.iew.exec_rate             2.350526                       # Inst execution rate
system.switch_cpus.iew.exec_refs            738605794                       # number of memory reference insts executed
system.switch_cpus.iew.exec_stores          215097215                       # Number of stores executed
system.switch_cpus.iew.exec_swp                     0                       # number of swp insts executed
system.switch_cpus.iew.iewBlockCycles        45117618                       # Number of cycles IEW is blocking
system.switch_cpus.iew.iewDispLoadInsts     550621250                       # Number of dispatched load instructions
system.switch_cpus.iew.iewDispNonSpecInsts           15                       # Number of dispatched non-speculative instructions
system.switch_cpus.iew.iewDispSquashedInsts     10741121                       # Number of squashed instructions skipped by dispatch
system.switch_cpus.iew.iewDispStoreInsts    234461653                       # Number of dispatched store instructions
system.switch_cpus.iew.iewDispatchedInsts   2572748312                       # Number of instructions dispatched to IQ
system.switch_cpus.iew.iewExecLoadInsts     523508579                       # Number of load instructions executed
system.switch_cpus.iew.iewExecSquashedInsts     34564348                       # Number of squashed instructions skipped in execute
system.switch_cpus.iew.iewExecutedInsts    2395194910                       # Number of executed instructions
system.switch_cpus.iew.iewIQFullEvents         539455                       # Number of times the IQ has become full, causing a stall
system.switch_cpus.iew.iewIdleCycles                0                       # Number of cycles IEW is idle
system.switch_cpus.iew.iewLSQFullEvents      17219994                       # Number of times the LSQ has become full, causing a stall
system.switch_cpus.iew.iewSquashCycles       18983333                       # Number of cycles IEW is squashing
system.switch_cpus.iew.iewUnblockCycles      17709652                       # Number of cycles IEW is unblocking
system.switch_cpus.iew.memOrderViolationEvents       284130                       # Number of memory order violations
system.switch_cpus.iew.predictedNotTakenIncorrect     11289412                       # Number of branches that were predicted not taken incorrectly
system.switch_cpus.iew.predictedTakenIncorrect      8829090                       # Number of branches that were predicted taken incorrectly
system.switch_cpus.iew.wb_consumers        2376592220                       # num instructions consuming a value
system.switch_cpus.iew.wb_count            2367975687                       # cumulative count of insts written-back
system.switch_cpus.iew.wb_fanout             0.634909                       # average fanout of values written-back
system.switch_cpus.iew.wb_producers        1508920775                       # num instructions producing a value
system.switch_cpus.iew.wb_rate               2.323814                       # insts written-back per cycle
system.switch_cpus.iew.wb_sent             2375004731                       # cumulative count of insts sent to commit
system.switch_cpus.int_regfile_reads       2987876741                       # number of integer regfile reads
system.switch_cpus.int_regfile_writes      1915732050                       # number of integer regfile writes
system.switch_cpus.ipc                       1.962701                       # IPC: Instructions Per Cycle
system.switch_cpus.ipc_total                 1.962701                       # IPC: Total IPC of All Threads
system.switch_cpus.iq.FU_type_0::No_OpClass          678      0.00%      0.00% # Type of FU issued
system.switch_cpus.iq.FU_type_0::IntAlu    1625585879     66.90%     66.90% # Type of FU issued
system.switch_cpus.iq.FU_type_0::IntMult     16003048      0.66%     67.56% # Type of FU issued
system.switch_cpus.iq.FU_type_0::IntDiv       1024562      0.04%     67.60% # Type of FU issued
system.switch_cpus.iq.FU_type_0::FloatAdd            0      0.00%     67.60% # Type of FU issued
system.switch_cpus.iq.FU_type_0::FloatCmp            0      0.00%     67.60% # Type of FU issued
system.switch_cpus.iq.FU_type_0::FloatCvt            0      0.00%     67.60% # Type of FU issued
system.switch_cpus.iq.FU_type_0::FloatMult            0      0.00%     67.60% # Type of FU issued
system.switch_cpus.iq.FU_type_0::FloatMultAcc            0      0.00%     67.60% # Type of FU issued
system.switch_cpus.iq.FU_type_0::FloatDiv            0      0.00%     67.60% # Type of FU issued
system.switch_cpus.iq.FU_type_0::FloatMisc     16194821      0.67%     68.27% # Type of FU issued
system.switch_cpus.iq.FU_type_0::FloatSqrt            0      0.00%     68.27% # Type of FU issued
system.switch_cpus.iq.FU_type_0::SimdAdd      8526727      0.35%     68.62% # Type of FU issued
system.switch_cpus.iq.FU_type_0::SimdAddAcc            0      0.00%     68.62% # Type of FU issued
system.switch_cpus.iq.FU_type_0::SimdAlu      7677935      0.32%     68.94% # Type of FU issued
system.switch_cpus.iq.FU_type_0::SimdCmp         2021      0.00%     68.94% # Type of FU issued
system.switch_cpus.iq.FU_type_0::SimdCvt            0      0.00%     68.94% # Type of FU issued
system.switch_cpus.iq.FU_type_0::SimdMisc      1051829      0.04%     68.98% # Type of FU issued
system.switch_cpus.iq.FU_type_0::SimdMult            0      0.00%     68.98% # Type of FU issued
system.switch_cpus.iq.FU_type_0::SimdMultAcc            0      0.00%     68.98% # Type of FU issued
system.switch_cpus.iq.FU_type_0::SimdShift         2200      0.00%     68.98% # Type of FU issued
system.switch_cpus.iq.FU_type_0::SimdShiftAcc            0      0.00%     68.98% # Type of FU issued
system.switch_cpus.iq.FU_type_0::SimdDiv            0      0.00%     68.98% # Type of FU issued
system.switch_cpus.iq.FU_type_0::SimdSqrt            0      0.00%     68.98% # Type of FU issued
system.switch_cpus.iq.FU_type_0::SimdFloatAdd            0      0.00%     68.98% # Type of FU issued
system.switch_cpus.iq.FU_type_0::SimdFloatAlu            0      0.00%     68.98% # Type of FU issued
system.switch_cpus.iq.FU_type_0::SimdFloatCmp            0      0.00%     68.98% # Type of FU issued
system.switch_cpus.iq.FU_type_0::SimdFloatCvt            0      0.00%     68.98% # Type of FU issued
system.switch_cpus.iq.FU_type_0::SimdFloatDiv            0      0.00%     68.98% # Type of FU issued
system.switch_cpus.iq.FU_type_0::SimdFloatMisc            0      0.00%     68.98% # Type of FU issued
system.switch_cpus.iq.FU_type_0::SimdFloatMult            0      0.00%     68.98% # Type of FU issued
system.switch_cpus.iq.FU_type_0::SimdFloatMultAcc            0      0.00%     68.98% # Type of FU issued
system.switch_cpus.iq.FU_type_0::SimdFloatSqrt            0      0.00%     68.98% # Type of FU issued
system.switch_cpus.iq.FU_type_0::SimdReduceAdd            0      0.00%     68.98% # Type of FU issued
system.switch_cpus.iq.FU_type_0::SimdReduceAlu            0      0.00%     68.98% # Type of FU issued
system.switch_cpus.iq.FU_type_0::SimdReduceCmp            0      0.00%     68.98% # Type of FU issued
system.switch_cpus.iq.FU_type_0::SimdFloatReduceAdd            0      0.00%     68.98% # Type of FU issued
system.switch_cpus.iq.FU_type_0::SimdFloatReduceCmp            0      0.00%     68.98% # Type of FU issued
system.switch_cpus.iq.FU_type_0::SimdAes            0      0.00%     68.98% # Type of FU issued
system.switch_cpus.iq.FU_type_0::SimdAesMix            0      0.00%     68.98% # Type of FU issued
system.switch_cpus.iq.FU_type_0::SimdSha1Hash            0      0.00%     68.98% # Type of FU issued
system.switch_cpus.iq.FU_type_0::SimdSha1Hash2            0      0.00%     68.98% # Type of FU issued
system.switch_cpus.iq.FU_type_0::SimdSha256Hash            0      0.00%     68.98% # Type of FU issued
system.switch_cpus.iq.FU_type_0::SimdSha256Hash2            0      0.00%     68.98% # Type of FU issued
system.switch_cpus.iq.FU_type_0::SimdShaSigma2            0      0.00%     68.98% # Type of FU issued
system.switch_cpus.iq.FU_type_0::SimdShaSigma3            0      0.00%     68.98% # Type of FU issued
system.switch_cpus.iq.FU_type_0::SimdPredAlu            0      0.00%     68.98% # Type of FU issued
system.switch_cpus.iq.FU_type_0::MemRead    535916085     22.06%     91.04% # Type of FU issued
system.switch_cpus.iq.FU_type_0::MemWrite    217773476      8.96%    100.00% # Type of FU issued
system.switch_cpus.iq.FU_type_0::FloatMemRead            0      0.00%    100.00% # Type of FU issued
system.switch_cpus.iq.FU_type_0::FloatMemWrite            0      0.00%    100.00% # Type of FU issued
system.switch_cpus.iq.FU_type_0::IprAccess            0      0.00%    100.00% # Type of FU issued
system.switch_cpus.iq.FU_type_0::InstPrefetch            0      0.00%    100.00% # Type of FU issued
system.switch_cpus.iq.FU_type_0::total     2429759261                       # Type of FU issued
system.switch_cpus.iq.fp_alu_accesses               0                       # Number of floating point alu accesses
system.switch_cpus.iq.fp_inst_queue_reads            0                       # Number of floating instruction queue reads
system.switch_cpus.iq.fp_inst_queue_wakeup_accesses            0                       # Number of floating instruction queue wakeup accesses
system.switch_cpus.iq.fp_inst_queue_writes            0                       # Number of floating instruction queue writes
system.switch_cpus.iq.fu_busy_cnt            30484260                       # FU busy when requested
system.switch_cpus.iq.fu_busy_rate           0.012546                       # FU busy rate (busy events/executed inst)
system.switch_cpus.iq.fu_full::No_OpClass            0      0.00%      0.00% # attempts to use FU when none available
system.switch_cpus.iq.fu_full::IntAlu         7911562     25.95%     25.95% # attempts to use FU when none available
system.switch_cpus.iq.fu_full::IntMult             39      0.00%     25.95% # attempts to use FU when none available
system.switch_cpus.iq.fu_full::IntDiv               0      0.00%     25.95% # attempts to use FU when none available
system.switch_cpus.iq.fu_full::FloatAdd             0      0.00%     25.95% # attempts to use FU when none available
system.switch_cpus.iq.fu_full::FloatCmp             0      0.00%     25.95% # attempts to use FU when none available
system.switch_cpus.iq.fu_full::FloatCvt             0      0.00%     25.95% # attempts to use FU when none available
system.switch_cpus.iq.fu_full::FloatMult            0      0.00%     25.95% # attempts to use FU when none available
system.switch_cpus.iq.fu_full::FloatMultAcc            0      0.00%     25.95% # attempts to use FU when none available
system.switch_cpus.iq.fu_full::FloatDiv             0      0.00%     25.95% # attempts to use FU when none available
system.switch_cpus.iq.fu_full::FloatMisc         3141      0.01%     25.96% # attempts to use FU when none available
system.switch_cpus.iq.fu_full::FloatSqrt            0      0.00%     25.96% # attempts to use FU when none available
system.switch_cpus.iq.fu_full::SimdAdd             38      0.00%     25.96% # attempts to use FU when none available
system.switch_cpus.iq.fu_full::SimdAddAcc            0      0.00%     25.96% # attempts to use FU when none available
system.switch_cpus.iq.fu_full::SimdAlu             16      0.00%     25.96% # attempts to use FU when none available
system.switch_cpus.iq.fu_full::SimdCmp              0      0.00%     25.96% # attempts to use FU when none available
system.switch_cpus.iq.fu_full::SimdCvt              0      0.00%     25.96% # attempts to use FU when none available
system.switch_cpus.iq.fu_full::SimdMisc            46      0.00%     25.96% # attempts to use FU when none available
system.switch_cpus.iq.fu_full::SimdMult             0      0.00%     25.96% # attempts to use FU when none available
system.switch_cpus.iq.fu_full::SimdMultAcc            0      0.00%     25.96% # attempts to use FU when none available
system.switch_cpus.iq.fu_full::SimdShift            0      0.00%     25.96% # attempts to use FU when none available
system.switch_cpus.iq.fu_full::SimdShiftAcc            0      0.00%     25.96% # attempts to use FU when none available
system.switch_cpus.iq.fu_full::SimdDiv              0      0.00%     25.96% # attempts to use FU when none available
system.switch_cpus.iq.fu_full::SimdSqrt             0      0.00%     25.96% # attempts to use FU when none available
system.switch_cpus.iq.fu_full::SimdFloatAdd            0      0.00%     25.96% # attempts to use FU when none available
system.switch_cpus.iq.fu_full::SimdFloatAlu            0      0.00%     25.96% # attempts to use FU when none available
system.switch_cpus.iq.fu_full::SimdFloatCmp            0      0.00%     25.96% # attempts to use FU when none available
system.switch_cpus.iq.fu_full::SimdFloatCvt            0      0.00%     25.96% # attempts to use FU when none available
system.switch_cpus.iq.fu_full::SimdFloatDiv            0      0.00%     25.96% # attempts to use FU when none available
system.switch_cpus.iq.fu_full::SimdFloatMisc            0      0.00%     25.96% # attempts to use FU when none available
system.switch_cpus.iq.fu_full::SimdFloatMult            0      0.00%     25.96% # attempts to use FU when none available
system.switch_cpus.iq.fu_full::SimdFloatMultAcc            0      0.00%     25.96% # attempts to use FU when none available
system.switch_cpus.iq.fu_full::SimdFloatSqrt            0      0.00%     25.96% # attempts to use FU when none available
system.switch_cpus.iq.fu_full::SimdReduceAdd            0      0.00%     25.96% # attempts to use FU when none available
system.switch_cpus.iq.fu_full::SimdReduceAlu            0      0.00%     25.96% # attempts to use FU when none available
system.switch_cpus.iq.fu_full::SimdReduceCmp            0      0.00%     25.96% # attempts to use FU when none available
system.switch_cpus.iq.fu_full::SimdFloatReduceAdd            0      0.00%     25.96% # attempts to use FU when none available
system.switch_cpus.iq.fu_full::SimdFloatReduceCmp            0      0.00%     25.96% # attempts to use FU when none available
system.switch_cpus.iq.fu_full::SimdAes              0      0.00%     25.96% # attempts to use FU when none available
system.switch_cpus.iq.fu_full::SimdAesMix            0      0.00%     25.96% # attempts to use FU when none available
system.switch_cpus.iq.fu_full::SimdSha1Hash            0      0.00%     25.96% # attempts to use FU when none available
system.switch_cpus.iq.fu_full::SimdSha1Hash2            0      0.00%     25.96% # attempts to use FU when none available
system.switch_cpus.iq.fu_full::SimdSha256Hash            0      0.00%     25.96% # attempts to use FU when none available
system.switch_cpus.iq.fu_full::SimdSha256Hash2            0      0.00%     25.96% # attempts to use FU when none available
system.switch_cpus.iq.fu_full::SimdShaSigma2            0      0.00%     25.96% # attempts to use FU when none available
system.switch_cpus.iq.fu_full::SimdShaSigma3            0      0.00%     25.96% # attempts to use FU when none available
system.switch_cpus.iq.fu_full::SimdPredAlu            0      0.00%     25.96% # attempts to use FU when none available
system.switch_cpus.iq.fu_full::MemRead       15035331     49.32%     75.29% # attempts to use FU when none available
system.switch_cpus.iq.fu_full::MemWrite       7534087     24.71%    100.00% # attempts to use FU when none available
system.switch_cpus.iq.fu_full::FloatMemRead            0      0.00%    100.00% # attempts to use FU when none available
system.switch_cpus.iq.fu_full::FloatMemWrite            0      0.00%    100.00% # attempts to use FU when none available
system.switch_cpus.iq.fu_full::IprAccess            0      0.00%    100.00% # attempts to use FU when none available
system.switch_cpus.iq.fu_full::InstPrefetch            0      0.00%    100.00% # attempts to use FU when none available
system.switch_cpus.iq.int_alu_accesses     2416439232                       # Number of integer alu accesses
system.switch_cpus.iq.int_inst_queue_reads   5821039139                       # Number of integer instruction queue reads
system.switch_cpus.iq.int_inst_queue_wakeup_accesses   2324515141                       # Number of integer instruction queue wakeup accesses
system.switch_cpus.iq.int_inst_queue_writes   2942121375                       # Number of integer instruction queue writes
system.switch_cpus.iq.iqInstsAdded         2568409645                       # Number of instructions added to the IQ (excludes non-spec)
system.switch_cpus.iq.iqInstsIssued        2429759261                       # Number of instructions issued
system.switch_cpus.iq.iqNonSpecInstsAdded           15                       # Number of non-speculative instructions added to the IQ
system.switch_cpus.iq.iqSquashedInstsExamined    419626656                       # Number of squashed instructions iterated over during squash; mainly for profiling
system.switch_cpus.iq.iqSquashedInstsIssued      1402442                       # Number of squashed instructions issued
system.switch_cpus.iq.iqSquashedNonSpecRemoved            9                       # Number of squashed non-spec instructions that were removed
system.switch_cpus.iq.iqSquashedOperandsExamined    324420668                       # Number of squashed operands that are examined and possibly removed from graph
system.switch_cpus.iq.issued_per_cycle::samples   1016992481                       # Number of insts issued each cycle
system.switch_cpus.iq.issued_per_cycle::mean     2.389161                       # Number of insts issued each cycle
system.switch_cpus.iq.issued_per_cycle::stdev     2.117970                       # Number of insts issued each cycle
system.switch_cpus.iq.issued_per_cycle::underflows            0      0.00%      0.00% # Number of insts issued each cycle
system.switch_cpus.iq.issued_per_cycle::0    266059389     26.16%     26.16% # Number of insts issued each cycle
system.switch_cpus.iq.issued_per_cycle::1    144677588     14.23%     40.39% # Number of insts issued each cycle
system.switch_cpus.iq.issued_per_cycle::2    171976825     16.91%     57.30% # Number of insts issued each cycle
system.switch_cpus.iq.issued_per_cycle::3    136692811     13.44%     70.74% # Number of insts issued each cycle
system.switch_cpus.iq.issued_per_cycle::4    117522930     11.56%     82.29% # Number of insts issued each cycle
system.switch_cpus.iq.issued_per_cycle::5     80293295      7.90%     90.19% # Number of insts issued each cycle
system.switch_cpus.iq.issued_per_cycle::6     55660070      5.47%     95.66% # Number of insts issued each cycle
system.switch_cpus.iq.issued_per_cycle::7     27345609      2.69%     98.35% # Number of insts issued each cycle
system.switch_cpus.iq.issued_per_cycle::8     16763964      1.65%    100.00% # Number of insts issued each cycle
system.switch_cpus.iq.issued_per_cycle::overflows            0      0.00%    100.00% # Number of insts issued each cycle
system.switch_cpus.iq.issued_per_cycle::min_value            0                       # Number of insts issued each cycle
system.switch_cpus.iq.issued_per_cycle::max_value            8                       # Number of insts issued each cycle
system.switch_cpus.iq.issued_per_cycle::total   1016992481                       # Number of insts issued each cycle
system.switch_cpus.iq.rate                   2.384445                       # Inst issue rate
system.switch_cpus.iq.vec_alu_accesses       43803611                       # Number of vector alu accesses
system.switch_cpus.iq.vec_inst_queue_reads     87358563                       # Number of vector instruction queue reads
system.switch_cpus.iq.vec_inst_queue_wakeup_accesses     43460546                       # Number of vector instruction queue wakeup accesses
system.switch_cpus.iq.vec_inst_queue_writes     46192979                       # Number of vector instruction queue writes
system.switch_cpus.memDep0.conflictingLoads     31972843                       # Number of conflicting loads.
system.switch_cpus.memDep0.conflictingStores     28594680                       # Number of conflicting stores.
system.switch_cpus.memDep0.insertedLoads    550621250                       # Number of loads inserted to the mem dependence unit.
system.switch_cpus.memDep0.insertedStores    234461653                       # Number of stores inserted to the mem dependence unit.
system.switch_cpus.misc_regfile_reads      5543491999                       # number of misc regfile reads
system.switch_cpus.misc_regfile_writes              1                       # number of misc regfile writes
system.switch_cpus.numCycles               1019003929                       # number of cpu cycles simulated
system.switch_cpus.numWorkItemsCompleted            0                       # number of work items this cpu completed
system.switch_cpus.numWorkItemsStarted              0                       # number of work items this cpu started
system.switch_cpus.pred_regfile_reads             810                       # number of predicate regfile reads
system.switch_cpus.pred_regfile_writes            272                       # number of predicate regfile writes
system.switch_cpus.timesIdled                  497942                       # Number of times that the entire CPU went into an idle state and unscheduled itself
system.switch_cpus.vec_regfile_reads         32971628                       # number of vector regfile reads
system.switch_cpus.vec_regfile_writes        28071795                       # number of vector regfile writes
system.tol2bus.snoop_filter.hit_multi_requests            1                       # Number of requests hitting in the snoop filter with multiple (>1) holders of the requested data.
system.tol2bus.snoop_filter.hit_multi_snoops            0                       # Number of snoops hitting in the snoop filter with multiple (>1) holders of the requested data.
system.tol2bus.snoop_filter.hit_single_requests      4886017                       # Number of requests hitting in the snoop filter with a single holder of the requested data.
system.tol2bus.snoop_filter.hit_single_snoops          658                       # Number of snoops hitting in the snoop filter with a single holder of the requested data.
system.tol2bus.snoop_filter.tot_requests      9773058                       # Total number of requests made to the snoop filter.
system.tol2bus.snoop_filter.tot_snoops            658                       # Total number of snoops made to the snoop filter.
system.clk_domain.clock                          1000                       # Clock period in ticks
system.cpu.dcache.demand_hits::.switch_cpus.data    685944287                       # number of demand (read+write) hits
system.cpu.dcache.demand_hits::total        685944287                       # number of demand (read+write) hits
system.cpu.dcache.overall_hits::.switch_cpus.data    685944287                       # number of overall hits
system.cpu.dcache.overall_hits::total       685944287                       # number of overall hits
system.cpu.dcache.demand_misses::.cpu.data            5                       # number of demand (read+write) misses
system.cpu.dcache.demand_misses::.switch_cpus.data     10047560                       # number of demand (read+write) misses
system.cpu.dcache.demand_misses::total       10047565                       # number of demand (read+write) misses
system.cpu.dcache.overall_misses::.cpu.data            5                       # number of overall misses
system.cpu.dcache.overall_misses::.switch_cpus.data     10047560                       # number of overall misses
system.cpu.dcache.overall_misses::total      10047565                       # number of overall misses
system.cpu.dcache.demand_miss_latency::.switch_cpus.data 309683390632                       # number of demand (read+write) miss cycles
system.cpu.dcache.demand_miss_latency::total 309683390632                       # number of demand (read+write) miss cycles
system.cpu.dcache.overall_miss_latency::.switch_cpus.data 309683390632                       # number of overall miss cycles
system.cpu.dcache.overall_miss_latency::total 309683390632                       # number of overall miss cycles
system.cpu.dcache.demand_accesses::.cpu.data            5                       # number of demand (read+write) accesses
system.cpu.dcache.demand_accesses::.switch_cpus.data    695991847                       # number of demand (read+write) accesses
system.cpu.dcache.demand_accesses::total    695991852                       # number of demand (read+write) accesses
system.cpu.dcache.overall_accesses::.cpu.data            5                       # number of overall (read+write) accesses
system.cpu.dcache.overall_accesses::.switch_cpus.data    695991847                       # number of overall (read+write) accesses
system.cpu.dcache.overall_accesses::total    695991852                       # number of overall (read+write) accesses
system.cpu.dcache.demand_miss_rate::.cpu.data            1                       # miss rate for demand accesses
system.cpu.dcache.demand_miss_rate::.switch_cpus.data     0.014436                       # miss rate for demand accesses
system.cpu.dcache.demand_miss_rate::total     0.014436                       # miss rate for demand accesses
system.cpu.dcache.overall_miss_rate::.cpu.data            1                       # miss rate for overall accesses
system.cpu.dcache.overall_miss_rate::.switch_cpus.data     0.014436                       # miss rate for overall accesses
system.cpu.dcache.overall_miss_rate::total     0.014436                       # miss rate for overall accesses
system.cpu.dcache.demand_avg_miss_latency::.switch_cpus.data 30821.750816                       # average overall miss latency
system.cpu.dcache.demand_avg_miss_latency::total 30821.735478                       # average overall miss latency
system.cpu.dcache.overall_avg_miss_latency::.switch_cpus.data 30821.750816                       # average overall miss latency
system.cpu.dcache.overall_avg_miss_latency::total 30821.735478                       # average overall miss latency
system.cpu.dcache.blocked_cycles::no_mshrs       853976                       # number of cycles access was blocked
system.cpu.dcache.blocked_cycles::no_targets         1351                       # number of cycles access was blocked
system.cpu.dcache.blocked::no_mshrs             75226                       # number of cycles access was blocked
system.cpu.dcache.blocked::no_targets              15                       # number of cycles access was blocked
system.cpu.dcache.avg_blocked_cycles::no_mshrs    11.352139                       # average number of cycles each access was blocked
system.cpu.dcache.avg_blocked_cycles::no_targets    90.066667                       # average number of cycles each access was blocked
system.cpu.dcache.ghost_timestamp_misses            0                       # number of times timestamp policy causes a block to be inaccessible
system.cpu.dcache.ghost_commits                     0                       # number of cache lines moved from ghost to main
system.cpu.dcache.same_leapfrogs                    0                       # number of times leapfrogging occurs with a shared MSHR request
system.cpu.dcache.writebacks::.writebacks      3471188                       # number of writebacks
system.cpu.dcache.writebacks::total           3471188                       # number of writebacks
system.cpu.dcache.demand_mshr_hits::.switch_cpus.data      6575865                       # number of demand (read+write) MSHR hits
system.cpu.dcache.demand_mshr_hits::total      6575865                       # number of demand (read+write) MSHR hits
system.cpu.dcache.overall_mshr_hits::.switch_cpus.data      6575865                       # number of overall MSHR hits
system.cpu.dcache.overall_mshr_hits::total      6575865                       # number of overall MSHR hits
system.cpu.dcache.demand_mshr_misses::.switch_cpus.data      3471695                       # number of demand (read+write) MSHR misses
system.cpu.dcache.demand_mshr_misses::total      3471695                       # number of demand (read+write) MSHR misses
system.cpu.dcache.overall_mshr_misses::.switch_cpus.data      3471695                       # number of overall MSHR misses
system.cpu.dcache.overall_mshr_misses::total      3471695                       # number of overall MSHR misses
system.cpu.dcache.demand_mshr_miss_latency::.switch_cpus.data  84969123850                       # number of demand (read+write) MSHR miss cycles
system.cpu.dcache.demand_mshr_miss_latency::total  84969123850                       # number of demand (read+write) MSHR miss cycles
system.cpu.dcache.overall_mshr_miss_latency::.switch_cpus.data  84969123850                       # number of overall MSHR miss cycles
system.cpu.dcache.overall_mshr_miss_latency::total  84969123850                       # number of overall MSHR miss cycles
system.cpu.dcache.demand_mshr_miss_rate::.switch_cpus.data     0.004988                       # mshr miss rate for demand accesses
system.cpu.dcache.demand_mshr_miss_rate::total     0.004988                       # mshr miss rate for demand accesses
system.cpu.dcache.overall_mshr_miss_rate::.switch_cpus.data     0.004988                       # mshr miss rate for overall accesses
system.cpu.dcache.overall_mshr_miss_rate::total     0.004988                       # mshr miss rate for overall accesses
system.cpu.dcache.demand_avg_mshr_miss_latency::.switch_cpus.data 24474.823926                       # average overall mshr miss latency
system.cpu.dcache.demand_avg_mshr_miss_latency::total 24474.823926                       # average overall mshr miss latency
system.cpu.dcache.overall_avg_mshr_miss_latency::.switch_cpus.data 24474.823926                       # average overall mshr miss latency
system.cpu.dcache.overall_avg_mshr_miss_latency::total 24474.823926                       # average overall mshr miss latency
system.cpu.dcache.replacements                3471188                       # number of replacements
system.cpu.dcache.ReadReq_hits::.switch_cpus.data    488398421                       # number of ReadReq hits
system.cpu.dcache.ReadReq_hits::total       488398421                       # number of ReadReq hits
system.cpu.dcache.ReadReq_misses::.cpu.data            5                       # number of ReadReq misses
system.cpu.dcache.ReadReq_misses::.switch_cpus.data      5907739                       # number of ReadReq misses
system.cpu.dcache.ReadReq_misses::total       5907744                       # number of ReadReq misses
system.cpu.dcache.ReadReq_miss_latency::.switch_cpus.data 259039440500                       # number of ReadReq miss cycles
system.cpu.dcache.ReadReq_miss_latency::total 259039440500                       # number of ReadReq miss cycles
system.cpu.dcache.ReadReq_accesses::.cpu.data            5                       # number of ReadReq accesses(hits+misses)
system.cpu.dcache.ReadReq_accesses::.switch_cpus.data    494306160                       # number of ReadReq accesses(hits+misses)
system.cpu.dcache.ReadReq_accesses::total    494306165                       # number of ReadReq accesses(hits+misses)
system.cpu.dcache.ReadReq_miss_rate::.cpu.data            1                       # miss rate for ReadReq accesses
system.cpu.dcache.ReadReq_miss_rate::.switch_cpus.data     0.011952                       # miss rate for ReadReq accesses
system.cpu.dcache.ReadReq_miss_rate::total     0.011952                       # miss rate for ReadReq accesses
system.cpu.dcache.ReadReq_avg_miss_latency::.switch_cpus.data 43847.475405                       # average ReadReq miss latency
system.cpu.dcache.ReadReq_avg_miss_latency::total 43847.438295                       # average ReadReq miss latency
system.cpu.dcache.ReadReq_mshr_hits::.switch_cpus.data      3564766                       # number of ReadReq MSHR hits
system.cpu.dcache.ReadReq_mshr_hits::total      3564766                       # number of ReadReq MSHR hits
system.cpu.dcache.ReadReq_mshr_misses::.switch_cpus.data      2342973                       # number of ReadReq MSHR misses
system.cpu.dcache.ReadReq_mshr_misses::total      2342973                       # number of ReadReq MSHR misses
system.cpu.dcache.ReadReq_mshr_miss_latency::.switch_cpus.data  71042465000                       # number of ReadReq MSHR miss cycles
system.cpu.dcache.ReadReq_mshr_miss_latency::total  71042465000                       # number of ReadReq MSHR miss cycles
system.cpu.dcache.ReadReq_mshr_miss_rate::.switch_cpus.data     0.004740                       # mshr miss rate for ReadReq accesses
system.cpu.dcache.ReadReq_mshr_miss_rate::total     0.004740                       # mshr miss rate for ReadReq accesses
system.cpu.dcache.ReadReq_avg_mshr_miss_latency::.switch_cpus.data 30321.503918                       # average ReadReq mshr miss latency
system.cpu.dcache.ReadReq_avg_mshr_miss_latency::total 30321.503918                       # average ReadReq mshr miss latency
system.cpu.dcache.WriteReq_hits::.switch_cpus.data    197545862                       # number of WriteReq hits
system.cpu.dcache.WriteReq_hits::total      197545862                       # number of WriteReq hits
system.cpu.dcache.WriteReq_misses::.switch_cpus.data      4139815                       # number of WriteReq misses
system.cpu.dcache.WriteReq_misses::total      4139815                       # number of WriteReq misses
system.cpu.dcache.WriteReq_miss_latency::.switch_cpus.data  50643814132                       # number of WriteReq miss cycles
system.cpu.dcache.WriteReq_miss_latency::total  50643814132                       # number of WriteReq miss cycles
system.cpu.dcache.WriteReq_accesses::.switch_cpus.data    201685677                       # number of WriteReq accesses(hits+misses)
system.cpu.dcache.WriteReq_accesses::total    201685677                       # number of WriteReq accesses(hits+misses)
system.cpu.dcache.WriteReq_miss_rate::.switch_cpus.data     0.020526                       # miss rate for WriteReq accesses
system.cpu.dcache.WriteReq_miss_rate::total     0.020526                       # miss rate for WriteReq accesses
system.cpu.dcache.WriteReq_avg_miss_latency::.switch_cpus.data 12233.352005                       # average WriteReq miss latency
system.cpu.dcache.WriteReq_avg_miss_latency::total 12233.352005                       # average WriteReq miss latency
system.cpu.dcache.WriteReq_mshr_hits::.switch_cpus.data      3011099                       # number of WriteReq MSHR hits
system.cpu.dcache.WriteReq_mshr_hits::total      3011099                       # number of WriteReq MSHR hits
system.cpu.dcache.WriteReq_mshr_misses::.switch_cpus.data      1128716                       # number of WriteReq MSHR misses
system.cpu.dcache.WriteReq_mshr_misses::total      1128716                       # number of WriteReq MSHR misses
system.cpu.dcache.WriteReq_mshr_miss_latency::.switch_cpus.data  13926528850                       # number of WriteReq MSHR miss cycles
system.cpu.dcache.WriteReq_mshr_miss_latency::total  13926528850                       # number of WriteReq MSHR miss cycles
system.cpu.dcache.WriteReq_mshr_miss_rate::.switch_cpus.data     0.005596                       # mshr miss rate for WriteReq accesses
system.cpu.dcache.WriteReq_mshr_miss_rate::total     0.005596                       # mshr miss rate for WriteReq accesses
system.cpu.dcache.WriteReq_avg_mshr_miss_latency::.switch_cpus.data 12338.381710                       # average WriteReq mshr miss latency
system.cpu.dcache.WriteReq_avg_mshr_miss_latency::total 12338.381710                       # average WriteReq mshr miss latency
system.cpu.dcache.WriteLineReq_hits::.switch_cpus.data            4                       # number of WriteLineReq hits
system.cpu.dcache.WriteLineReq_hits::total            4                       # number of WriteLineReq hits
system.cpu.dcache.WriteLineReq_misses::.switch_cpus.data            6                       # number of WriteLineReq misses
system.cpu.dcache.WriteLineReq_misses::total            6                       # number of WriteLineReq misses
system.cpu.dcache.WriteLineReq_miss_latency::.switch_cpus.data       136000                       # number of WriteLineReq miss cycles
system.cpu.dcache.WriteLineReq_miss_latency::total       136000                       # number of WriteLineReq miss cycles
system.cpu.dcache.WriteLineReq_accesses::.switch_cpus.data           10                       # number of WriteLineReq accesses(hits+misses)
system.cpu.dcache.WriteLineReq_accesses::total           10                       # number of WriteLineReq accesses(hits+misses)
system.cpu.dcache.WriteLineReq_miss_rate::.switch_cpus.data     0.600000                       # miss rate for WriteLineReq accesses
system.cpu.dcache.WriteLineReq_miss_rate::total     0.600000                       # miss rate for WriteLineReq accesses
system.cpu.dcache.WriteLineReq_avg_miss_latency::.switch_cpus.data 22666.666667                       # average WriteLineReq miss latency
system.cpu.dcache.WriteLineReq_avg_miss_latency::total 22666.666667                       # average WriteLineReq miss latency
system.cpu.dcache.WriteLineReq_mshr_misses::.switch_cpus.data            6                       # number of WriteLineReq MSHR misses
system.cpu.dcache.WriteLineReq_mshr_misses::total            6                       # number of WriteLineReq MSHR misses
system.cpu.dcache.WriteLineReq_mshr_miss_latency::.switch_cpus.data       130000                       # number of WriteLineReq MSHR miss cycles
system.cpu.dcache.WriteLineReq_mshr_miss_latency::total       130000                       # number of WriteLineReq MSHR miss cycles
system.cpu.dcache.WriteLineReq_mshr_miss_rate::.switch_cpus.data     0.600000                       # mshr miss rate for WriteLineReq accesses
system.cpu.dcache.WriteLineReq_mshr_miss_rate::total     0.600000                       # mshr miss rate for WriteLineReq accesses
system.cpu.dcache.WriteLineReq_avg_mshr_miss_latency::.switch_cpus.data 21666.666667                       # average WriteLineReq mshr miss latency
system.cpu.dcache.WriteLineReq_avg_mshr_miss_latency::total 21666.666667                       # average WriteLineReq mshr miss latency
system.cpu.dcache.ghosttags.tagsinuse               0                       # Cycle average of tags in use
system.cpu.dcache.ghosttags.total_refs              0                       # Total number of references to valid blocks.
system.cpu.dcache.ghosttags.sampled_refs            0                       # Sample count of references to valid blocks.
system.cpu.dcache.ghosttags.avg_refs              nan                       # Average number of references to valid blocks.
system.cpu.dcache.ghosttags.warmup_cycle            0                       # Cycle when the warmup percentage was hit.
system.cpu.dcache.ghosttags.tag_accesses            0                       # Number of tag accesses
system.cpu.dcache.ghosttags.data_accesses            0                       # Number of data accesses
system.cpu.dcache.ghosttags.repl_invalid            0                       # Number of initial replacements
system.cpu.dcache.ghosttags.repl_valid_tag            0                       # Number of local replacements
system.cpu.dcache.ghosttags.repl_valid_data            0                       # Number of global replacements
system.cpu.dcache.ghosttags.power_state.pwrStateResidencyTicks::UNDEFINED 5845784647500                       # Cumulative time (in ticks) in various power states
system.cpu.dcache.power_state.pwrStateResidencyTicks::UNDEFINED 5845784647500                       # Cumulative time (in ticks) in various power states
system.cpu.dcache.tags.tagsinuse           511.962909                       # Cycle average of tags in use
system.cpu.dcache.tags.total_refs           689415987                       # Total number of references to valid blocks.
system.cpu.dcache.tags.sampled_refs           3471700                       # Sample count of references to valid blocks.
system.cpu.dcache.tags.avg_refs            198.581671                       # Average number of references to valid blocks.
system.cpu.dcache.tags.warmup_cycle      5336283091500                       # Cycle when the warmup percentage was hit.
system.cpu.dcache.tags.occ_blocks::.cpu.data     0.007541                       # Average occupied blocks per requestor
system.cpu.dcache.tags.occ_blocks::.switch_cpus.data   511.955368                       # Average occupied blocks per requestor
system.cpu.dcache.tags.occ_percent::.cpu.data     0.000015                       # Average percentage of cache occupancy
system.cpu.dcache.tags.occ_percent::.switch_cpus.data     0.999913                       # Average percentage of cache occupancy
system.cpu.dcache.tags.occ_percent::total     0.999928                       # Average percentage of cache occupancy
system.cpu.dcache.tags.occ_task_id_blocks::1024          512                       # Occupied blocks per task id
system.cpu.dcache.tags.age_task_id_blocks_1024::0           92                       # Occupied blocks per task id
system.cpu.dcache.tags.age_task_id_blocks_1024::1          237                       # Occupied blocks per task id
system.cpu.dcache.tags.age_task_id_blocks_1024::2          107                       # Occupied blocks per task id
system.cpu.dcache.tags.age_task_id_blocks_1024::3           36                       # Occupied blocks per task id
system.cpu.dcache.tags.age_task_id_blocks_1024::4           40                       # Occupied blocks per task id
system.cpu.dcache.tags.occ_task_id_percent::1024            1                       # Percentage of cache occupancy per task id
system.cpu.dcache.tags.tag_accesses        5571406516                       # Number of tag accesses
system.cpu.dcache.tags.data_accesses       5571406516                       # Number of data accesses
system.cpu.dcache.tags.repl_invalid                 0                       # Number of initial replacements
system.cpu.dcache.tags.repl_valid_tag               0                       # Number of local replacements
system.cpu.dcache.tags.repl_valid_data              0                       # Number of global replacements
system.cpu.dcache.tags.power_state.pwrStateResidencyTicks::UNDEFINED 5845784647500                       # Cumulative time (in ticks) in various power states
system.cpu.dtb.instHits                             0                       # ITB inst hits
system.cpu.dtb.instMisses                           0                       # ITB inst misses
system.cpu.dtb.readHits                             0                       # DTB read hits
system.cpu.dtb.readMisses                           0                       # DTB read misses
system.cpu.dtb.writeHits                            0                       # DTB write hits
system.cpu.dtb.writeMisses                          0                       # DTB write misses
system.cpu.dtb.inserts                              0                       # Number of times an entry is inserted into the TLB
system.cpu.dtb.flushTlb                             2                       # Number of times complete TLB was flushed
system.cpu.dtb.flushTlbMva                          0                       # Number of times TLB was flushed by MVA
system.cpu.dtb.flushTlbMvaAsid                      0                       # Number of times TLB was flushed by MVA & ASID
system.cpu.dtb.flushTlbAsid                         0                       # Number of times TLB was flushed by ASID
system.cpu.dtb.flushedEntries                       0                       # Number of entries that have been flushed from TLB
system.cpu.dtb.alignFaults                          0                       # Number of TLB faults due to alignment restrictions
system.cpu.dtb.prefetchFaults                       0                       # Number of TLB faults due to prefetch
system.cpu.dtb.domainFaults                         0                       # Number of TLB faults due to domain restrictions
system.cpu.dtb.permsFaults                          0                       # Number of TLB faults due to permissions restrictions
system.cpu.dtb.readAccesses                         0                       # DTB read accesses
system.cpu.dtb.writeAccesses                        0                       # DTB write accesses
system.cpu.dtb.instAccesses                         0                       # ITB inst accesses
system.cpu.dtb.hits                                 0                       # Total TLB (inst and data) hits
system.cpu.dtb.misses                               0                       # Total TLB (inst and data) misses
system.cpu.dtb.accesses                             0                       # Total TLB (inst and data) accesses
system.cpu.dtb.stage2_mmu.stage2_tlb.instHits            0                       # ITB inst hits
system.cpu.dtb.stage2_mmu.stage2_tlb.instMisses            0                       # ITB inst misses
system.cpu.dtb.stage2_mmu.stage2_tlb.readHits            0                       # DTB read hits
system.cpu.dtb.stage2_mmu.stage2_tlb.readMisses            0                       # DTB read misses
system.cpu.dtb.stage2_mmu.stage2_tlb.writeHits            0                       # DTB write hits
system.cpu.dtb.stage2_mmu.stage2_tlb.writeMisses            0                       # DTB write misses
system.cpu.dtb.stage2_mmu.stage2_tlb.inserts            0                       # Number of times an entry is inserted into the TLB
system.cpu.dtb.stage2_mmu.stage2_tlb.flushTlb            0                       # Number of times complete TLB was flushed
system.cpu.dtb.stage2_mmu.stage2_tlb.flushTlbMva            0                       # Number of times TLB was flushed by MVA
system.cpu.dtb.stage2_mmu.stage2_tlb.flushTlbMvaAsid            0                       # Number of times TLB was flushed by MVA & ASID
system.cpu.dtb.stage2_mmu.stage2_tlb.flushTlbAsid            0                       # Number of times TLB was flushed by ASID
system.cpu.dtb.stage2_mmu.stage2_tlb.flushedEntries            0                       # Number of entries that have been flushed from TLB
system.cpu.dtb.stage2_mmu.stage2_tlb.alignFaults            0                       # Number of TLB faults due to alignment restrictions
system.cpu.dtb.stage2_mmu.stage2_tlb.prefetchFaults            0                       # Number of TLB faults due to prefetch
system.cpu.dtb.stage2_mmu.stage2_tlb.domainFaults            0                       # Number of TLB faults due to domain restrictions
system.cpu.dtb.stage2_mmu.stage2_tlb.permsFaults            0                       # Number of TLB faults due to permissions restrictions
system.cpu.dtb.stage2_mmu.stage2_tlb.readAccesses            0                       # DTB read accesses
system.cpu.dtb.stage2_mmu.stage2_tlb.writeAccesses            0                       # DTB write accesses
system.cpu.dtb.stage2_mmu.stage2_tlb.instAccesses            0                       # ITB inst accesses
system.cpu.dtb.stage2_mmu.stage2_tlb.hits            0                       # Total TLB (inst and data) hits
system.cpu.dtb.stage2_mmu.stage2_tlb.misses            0                       # Total TLB (inst and data) misses
system.cpu.dtb.stage2_mmu.stage2_tlb.accesses            0                       # Total TLB (inst and data) accesses
system.cpu.dtb.stage2_mmu.stage2_tlb.walker.walks            0                       # Table walker walks requested
system.cpu.dtb.stage2_mmu.stage2_tlb.walker.requestOrigin_Requested::Data            0                       # Table walker requests started/completed, data/inst
system.cpu.dtb.stage2_mmu.stage2_tlb.walker.requestOrigin_Requested::Inst            0                       # Table walker requests started/completed, data/inst
system.cpu.dtb.stage2_mmu.stage2_tlb.walker.requestOrigin_Requested::total            0                       # Table walker requests started/completed, data/inst
system.cpu.dtb.stage2_mmu.stage2_tlb.walker.requestOrigin_Completed::Data            0                       # Table walker requests started/completed, data/inst
system.cpu.dtb.stage2_mmu.stage2_tlb.walker.requestOrigin_Completed::Inst            0                       # Table walker requests started/completed, data/inst
system.cpu.dtb.stage2_mmu.stage2_tlb.walker.requestOrigin_Completed::total            0                       # Table walker requests started/completed, data/inst
system.cpu.dtb.stage2_mmu.stage2_tlb.walker.requestOrigin::total            0                       # Table walker requests started/completed, data/inst
system.cpu.dtb.stage2_mmu.stage2_tlb.walker.power_state.pwrStateResidencyTicks::UNDEFINED 5845784647500                       # Cumulative time (in ticks) in various power states
system.cpu.dtb.walker.walks                         0                       # Table walker walks requested
system.cpu.dtb.walker.requestOrigin_Requested::Data            0                       # Table walker requests started/completed, data/inst
system.cpu.dtb.walker.requestOrigin_Requested::Inst            0                       # Table walker requests started/completed, data/inst
system.cpu.dtb.walker.requestOrigin_Requested::total            0                       # Table walker requests started/completed, data/inst
system.cpu.dtb.walker.requestOrigin_Completed::Data            0                       # Table walker requests started/completed, data/inst
system.cpu.dtb.walker.requestOrigin_Completed::Inst            0                       # Table walker requests started/completed, data/inst
system.cpu.dtb.walker.requestOrigin_Completed::total            0                       # Table walker requests started/completed, data/inst
system.cpu.dtb.walker.requestOrigin::total            0                       # Table walker requests started/completed, data/inst
system.cpu.dtb.walker.power_state.pwrStateResidencyTicks::UNDEFINED 5845784647500                       # Cumulative time (in ticks) in various power states
system.cpu.icache.demand_hits::.cpu.inst           16                       # number of demand (read+write) hits
system.cpu.icache.demand_hits::.switch_cpus.inst    355648485                       # number of demand (read+write) hits
system.cpu.icache.demand_hits::total        355648501                       # number of demand (read+write) hits
system.cpu.icache.overall_hits::.cpu.inst           16                       # number of overall hits
system.cpu.icache.overall_hits::.switch_cpus.inst    355648485                       # number of overall hits
system.cpu.icache.overall_hits::total       355648501                       # number of overall hits
system.cpu.icache.demand_misses::.cpu.inst            4                       # number of demand (read+write) misses
system.cpu.icache.demand_misses::.switch_cpus.inst      1533686                       # number of demand (read+write) misses
system.cpu.icache.demand_misses::total        1533690                       # number of demand (read+write) misses
system.cpu.icache.overall_misses::.cpu.inst            4                       # number of overall misses
system.cpu.icache.overall_misses::.switch_cpus.inst      1533686                       # number of overall misses
system.cpu.icache.overall_misses::total       1533690                       # number of overall misses
system.cpu.icache.demand_miss_latency::.switch_cpus.inst  19327150498                       # number of demand (read+write) miss cycles
system.cpu.icache.demand_miss_latency::total  19327150498                       # number of demand (read+write) miss cycles
system.cpu.icache.overall_miss_latency::.switch_cpus.inst  19327150498                       # number of overall miss cycles
system.cpu.icache.overall_miss_latency::total  19327150498                       # number of overall miss cycles
system.cpu.icache.demand_accesses::.cpu.inst           20                       # number of demand (read+write) accesses
system.cpu.icache.demand_accesses::.switch_cpus.inst    357182171                       # number of demand (read+write) accesses
system.cpu.icache.demand_accesses::total    357182191                       # number of demand (read+write) accesses
system.cpu.icache.overall_accesses::.cpu.inst           20                       # number of overall (read+write) accesses
system.cpu.icache.overall_accesses::.switch_cpus.inst    357182171                       # number of overall (read+write) accesses
system.cpu.icache.overall_accesses::total    357182191                       # number of overall (read+write) accesses
system.cpu.icache.demand_miss_rate::.cpu.inst     0.200000                       # miss rate for demand accesses
system.cpu.icache.demand_miss_rate::.switch_cpus.inst     0.004294                       # miss rate for demand accesses
system.cpu.icache.demand_miss_rate::total     0.004294                       # miss rate for demand accesses
system.cpu.icache.overall_miss_rate::.cpu.inst     0.200000                       # miss rate for overall accesses
system.cpu.icache.overall_miss_rate::.switch_cpus.inst     0.004294                       # miss rate for overall accesses
system.cpu.icache.overall_miss_rate::total     0.004294                       # miss rate for overall accesses
system.cpu.icache.demand_avg_miss_latency::.switch_cpus.inst 12601.764962                       # average overall miss latency
system.cpu.icache.demand_avg_miss_latency::total 12601.732096                       # average overall miss latency
system.cpu.icache.overall_avg_miss_latency::.switch_cpus.inst 12601.764962                       # average overall miss latency
system.cpu.icache.overall_avg_miss_latency::total 12601.732096                       # average overall miss latency
system.cpu.icache.blocked_cycles::no_mshrs          713                       # number of cycles access was blocked
system.cpu.icache.blocked_cycles::no_targets            0                       # number of cycles access was blocked
system.cpu.icache.blocked::no_mshrs                32                       # number of cycles access was blocked
system.cpu.icache.blocked::no_targets               0                       # number of cycles access was blocked
system.cpu.icache.avg_blocked_cycles::no_mshrs    22.281250                       # average number of cycles each access was blocked
system.cpu.icache.avg_blocked_cycles::no_targets          nan                       # average number of cycles each access was blocked
system.cpu.icache.ghost_timestamp_misses            0                       # number of times timestamp policy causes a block to be inaccessible
system.cpu.icache.ghost_commits                     0                       # number of cache lines moved from ghost to main
system.cpu.icache.same_leapfrogs                    0                       # number of times leapfrogging occurs with a shared MSHR request
system.cpu.icache.writebacks::.writebacks      1414829                       # number of writebacks
system.cpu.icache.writebacks::total           1414829                       # number of writebacks
system.cpu.icache.demand_mshr_hits::.switch_cpus.inst       118349                       # number of demand (read+write) MSHR hits
system.cpu.icache.demand_mshr_hits::total       118349                       # number of demand (read+write) MSHR hits
system.cpu.icache.overall_mshr_hits::.switch_cpus.inst       118349                       # number of overall MSHR hits
system.cpu.icache.overall_mshr_hits::total       118349                       # number of overall MSHR hits
system.cpu.icache.demand_mshr_misses::.switch_cpus.inst      1415337                       # number of demand (read+write) MSHR misses
system.cpu.icache.demand_mshr_misses::total      1415337                       # number of demand (read+write) MSHR misses
system.cpu.icache.overall_mshr_misses::.switch_cpus.inst      1415337                       # number of overall MSHR misses
system.cpu.icache.overall_mshr_misses::total      1415337                       # number of overall MSHR misses
system.cpu.icache.demand_mshr_miss_latency::.switch_cpus.inst  17138357498                       # number of demand (read+write) MSHR miss cycles
system.cpu.icache.demand_mshr_miss_latency::total  17138357498                       # number of demand (read+write) MSHR miss cycles
system.cpu.icache.overall_mshr_miss_latency::.switch_cpus.inst  17138357498                       # number of overall MSHR miss cycles
system.cpu.icache.overall_mshr_miss_latency::total  17138357498                       # number of overall MSHR miss cycles
system.cpu.icache.demand_mshr_miss_rate::.switch_cpus.inst     0.003963                       # mshr miss rate for demand accesses
system.cpu.icache.demand_mshr_miss_rate::total     0.003963                       # mshr miss rate for demand accesses
system.cpu.icache.overall_mshr_miss_rate::.switch_cpus.inst     0.003963                       # mshr miss rate for overall accesses
system.cpu.icache.overall_mshr_miss_rate::total     0.003963                       # mshr miss rate for overall accesses
system.cpu.icache.demand_avg_mshr_miss_latency::.switch_cpus.inst 12109.029509                       # average overall mshr miss latency
system.cpu.icache.demand_avg_mshr_miss_latency::total 12109.029509                       # average overall mshr miss latency
system.cpu.icache.overall_avg_mshr_miss_latency::.switch_cpus.inst 12109.029509                       # average overall mshr miss latency
system.cpu.icache.overall_avg_mshr_miss_latency::total 12109.029509                       # average overall mshr miss latency
system.cpu.icache.replacements                1414829                       # number of replacements
system.cpu.icache.ReadReq_hits::.cpu.inst           16                       # number of ReadReq hits
system.cpu.icache.ReadReq_hits::.switch_cpus.inst    355648485                       # number of ReadReq hits
system.cpu.icache.ReadReq_hits::total       355648501                       # number of ReadReq hits
system.cpu.icache.ReadReq_misses::.cpu.inst            4                       # number of ReadReq misses
system.cpu.icache.ReadReq_misses::.switch_cpus.inst      1533686                       # number of ReadReq misses
system.cpu.icache.ReadReq_misses::total       1533690                       # number of ReadReq misses
system.cpu.icache.ReadReq_miss_latency::.switch_cpus.inst  19327150498                       # number of ReadReq miss cycles
system.cpu.icache.ReadReq_miss_latency::total  19327150498                       # number of ReadReq miss cycles
system.cpu.icache.ReadReq_accesses::.cpu.inst           20                       # number of ReadReq accesses(hits+misses)
system.cpu.icache.ReadReq_accesses::.switch_cpus.inst    357182171                       # number of ReadReq accesses(hits+misses)
system.cpu.icache.ReadReq_accesses::total    357182191                       # number of ReadReq accesses(hits+misses)
system.cpu.icache.ReadReq_miss_rate::.cpu.inst     0.200000                       # miss rate for ReadReq accesses
system.cpu.icache.ReadReq_miss_rate::.switch_cpus.inst     0.004294                       # miss rate for ReadReq accesses
system.cpu.icache.ReadReq_miss_rate::total     0.004294                       # miss rate for ReadReq accesses
system.cpu.icache.ReadReq_avg_miss_latency::.switch_cpus.inst 12601.764962                       # average ReadReq miss latency
system.cpu.icache.ReadReq_avg_miss_latency::total 12601.732096                       # average ReadReq miss latency
system.cpu.icache.ReadReq_mshr_hits::.switch_cpus.inst       118349                       # number of ReadReq MSHR hits
system.cpu.icache.ReadReq_mshr_hits::total       118349                       # number of ReadReq MSHR hits
system.cpu.icache.ReadReq_mshr_misses::.switch_cpus.inst      1415337                       # number of ReadReq MSHR misses
system.cpu.icache.ReadReq_mshr_misses::total      1415337                       # number of ReadReq MSHR misses
system.cpu.icache.ReadReq_mshr_miss_latency::.switch_cpus.inst  17138357498                       # number of ReadReq MSHR miss cycles
system.cpu.icache.ReadReq_mshr_miss_latency::total  17138357498                       # number of ReadReq MSHR miss cycles
system.cpu.icache.ReadReq_mshr_miss_rate::.switch_cpus.inst     0.003963                       # mshr miss rate for ReadReq accesses
system.cpu.icache.ReadReq_mshr_miss_rate::total     0.003963                       # mshr miss rate for ReadReq accesses
system.cpu.icache.ReadReq_avg_mshr_miss_latency::.switch_cpus.inst 12109.029509                       # average ReadReq mshr miss latency
system.cpu.icache.ReadReq_avg_mshr_miss_latency::total 12109.029509                       # average ReadReq mshr miss latency
system.cpu.icache.ghosttags.tagsinuse               0                       # Cycle average of tags in use
system.cpu.icache.ghosttags.total_refs              0                       # Total number of references to valid blocks.
system.cpu.icache.ghosttags.sampled_refs            0                       # Sample count of references to valid blocks.
system.cpu.icache.ghosttags.avg_refs              nan                       # Average number of references to valid blocks.
system.cpu.icache.ghosttags.warmup_cycle            0                       # Cycle when the warmup percentage was hit.
system.cpu.icache.ghosttags.tag_accesses            0                       # Number of tag accesses
system.cpu.icache.ghosttags.data_accesses            0                       # Number of data accesses
system.cpu.icache.ghosttags.repl_invalid            0                       # Number of initial replacements
system.cpu.icache.ghosttags.repl_valid_tag            0                       # Number of local replacements
system.cpu.icache.ghosttags.repl_valid_data            0                       # Number of global replacements
system.cpu.icache.ghosttags.power_state.pwrStateResidencyTicks::UNDEFINED 5845784647500                       # Cumulative time (in ticks) in various power states
system.cpu.icache.power_state.pwrStateResidencyTicks::UNDEFINED 5845784647500                       # Cumulative time (in ticks) in various power states
system.cpu.icache.tags.tagsinuse           511.900266                       # Cycle average of tags in use
system.cpu.icache.tags.total_refs           357063842                       # Total number of references to valid blocks.
system.cpu.icache.tags.sampled_refs           1415341                       # Sample count of references to valid blocks.
system.cpu.icache.tags.avg_refs            252.281141                       # Average number of references to valid blocks.
system.cpu.icache.tags.warmup_cycle      5336283087500                       # Cycle when the warmup percentage was hit.
system.cpu.icache.tags.occ_blocks::.cpu.inst     0.014442                       # Average occupied blocks per requestor
system.cpu.icache.tags.occ_blocks::.switch_cpus.inst   511.885824                       # Average occupied blocks per requestor
system.cpu.icache.tags.occ_percent::.cpu.inst     0.000028                       # Average percentage of cache occupancy
system.cpu.icache.tags.occ_percent::.switch_cpus.inst     0.999777                       # Average percentage of cache occupancy
system.cpu.icache.tags.occ_percent::total     0.999805                       # Average percentage of cache occupancy
system.cpu.icache.tags.occ_task_id_blocks::1024          512                       # Occupied blocks per task id
system.cpu.icache.tags.age_task_id_blocks_1024::0           23                       # Occupied blocks per task id
system.cpu.icache.tags.age_task_id_blocks_1024::1           52                       # Occupied blocks per task id
system.cpu.icache.tags.age_task_id_blocks_1024::2           89                       # Occupied blocks per task id
system.cpu.icache.tags.age_task_id_blocks_1024::3          129                       # Occupied blocks per task id
system.cpu.icache.tags.age_task_id_blocks_1024::4          219                       # Occupied blocks per task id
system.cpu.icache.tags.occ_task_id_percent::1024            1                       # Percentage of cache occupancy per task id
system.cpu.icache.tags.tag_accesses        2858872869                       # Number of tag accesses
system.cpu.icache.tags.data_accesses       2858872869                       # Number of data accesses
system.cpu.icache.tags.repl_invalid                 0                       # Number of initial replacements
system.cpu.icache.tags.repl_valid_tag               0                       # Number of local replacements
system.cpu.icache.tags.repl_valid_data              0                       # Number of global replacements
system.cpu.icache.tags.power_state.pwrStateResidencyTicks::UNDEFINED 5845784647500                       # Cumulative time (in ticks) in various power states
system.cpu.itb.instHits                             0                       # ITB inst hits
system.cpu.itb.instMisses                           0                       # ITB inst misses
system.cpu.itb.readHits                             0                       # DTB read hits
system.cpu.itb.readMisses                           0                       # DTB read misses
system.cpu.itb.writeHits                            0                       # DTB write hits
system.cpu.itb.writeMisses                          0                       # DTB write misses
system.cpu.itb.inserts                              0                       # Number of times an entry is inserted into the TLB
system.cpu.itb.flushTlb                             2                       # Number of times complete TLB was flushed
system.cpu.itb.flushTlbMva                          0                       # Number of times TLB was flushed by MVA
system.cpu.itb.flushTlbMvaAsid                      0                       # Number of times TLB was flushed by MVA & ASID
system.cpu.itb.flushTlbAsid                         0                       # Number of times TLB was flushed by ASID
system.cpu.itb.flushedEntries                       0                       # Number of entries that have been flushed from TLB
system.cpu.itb.alignFaults                          0                       # Number of TLB faults due to alignment restrictions
system.cpu.itb.prefetchFaults                       0                       # Number of TLB faults due to prefetch
[...]
system.switch_cpus.fetch.squashCycles        43651802                       # Number of cycles fetch has spent squashing
system.switch_cpus.fetch.tlbCycles                383                       # Number of cycles fetch has spent waiting for tlb
system.switch_cpus.fetch.miscStallCycles          532                       # Number of cycles fetch has spent waiting on interrupts,or bad addresses, or out of MSHRs
system.switch_cpus.fetch.pendingTrapStallCycles         1947                       # Number of stall cycles due to pending traps
system.switch_cpus.fetch.icacheWaitRetryStallCycles           73                       # Number of stall cycles due to full MSHR
system.switch_cpus.fetch.cacheLines         357182172                       # Number of cache lines fetched
system.switch_cpus.fetch.icacheSquashes       8542899                       # Number of outstanding Icache misses that were squashed
system.switch_cpus.fetch.tlbSquashes                2                       # Number of outstanding ITLB misses that were squashed
system.switch_cpus.fetch.nisnDist::samples   1016992481                       # Number of instructions fetched each cycle (Total)
system.switch_cpus.fetch.nisnDist::mean      2.802901                       # Number of instructions fetched each cycle (Total)
system.switch_cpus.fetch.nisnDist::stdev     3.288648                       # Number of instructions fetched each cycle (Total)
system.switch_cpus.fetch.nisnDist::underflows            0      0.00%      0.00% # Number of instructions fetched each cycle (Total)
system.switch_cpus.fetch.nisnDist::0        477328529     46.94%     46.94% # Number of instructions fetched each cycle (Total)
system.switch_cpus.fetch.nisnDist::1         66643285      6.55%     53.49% # Number of instructions fetched each cycle (Total)
system.switch_cpus.fetch.nisnDist::2         61253643      6.02%     59.51% # Number of instructions fetched each cycle (Total)
system.switch_cpus.fetch.nisnDist::3         43926918      4.32%     63.83% # Number of instructions fetched each cycle (Total)
system.switch_cpus.fetch.nisnDist::4         57556963      5.66%     69.49% # Number of instructions fetched each cycle (Total)
system.switch_cpus.fetch.nisnDist::5         31799873      3.13%     72.62% # Number of instructions fetched each cycle (Total)
system.switch_cpus.fetch.nisnDist::6         27661661      2.72%     75.34% # Number of instructions fetched each cycle (Total)
system.switch_cpus.fetch.nisnDist::7         32171861      3.16%     78.50% # Number of instructions fetched each cycle (Total)
system.switch_cpus.fetch.nisnDist::8        218649748     21.50%    100.00% # Number of instructions fetched each cycle (Total)
system.switch_cpus.fetch.nisnDist::overflows            0      0.00%    100.00% # Number of instructions fetched each cycle (Total)
system.switch_cpus.fetch.nisnDist::min_value            0                       # Number of instructions fetched each cycle (Total)
system.switch_cpus.fetch.nisnDist::max_value            8                       # Number of instructions fetched each cycle (Total)
system.switch_cpus.fetch.nisnDist::total   1016992481                       # Number of instructions fetched each cycle (Total)
system.switch_cpus.fetch.branchRate          0.362146                       # Number of branch fetches per cycle
system.switch_cpus.fetch.rate                2.603853                       # Number of inst fetches per cycle
system.switch_cpus.itb.instHits                     0                       # ITB inst hits
system.switch_cpus.itb.instMisses                   0                       # ITB inst misses
system.switch_cpus.itb.readHits                     0                       # DTB read hits
system.switch_cpus.itb.readMisses                   0                       # DTB read misses
system.switch_cpus.itb.writeHits                    0                       # DTB write hits
system.switch_cpus.itb.writeMisses                  0                       # DTB write misses
system.switch_cpus.itb.inserts                      0                       # Number of times an entry is inserted into the TLB
system.switch_cpus.itb.flushTlb                     0                       # Number of times complete TLB was flushed
system.switch_cpus.itb.flushTlbMva                  0                       # Number of times TLB was flushed by MVA
system.switch_cpus.itb.flushTlbMvaAsid              0                       # Number of times TLB was flushed by MVA & ASID
system.switch_cpus.itb.flushTlbAsid                 0                       # Number of times TLB was flushed by ASID
system.switch_cpus.itb.flushedEntries               0                       # Number of entries that have been flushed from TLB
system.switch_cpus.itb.alignFaults                  0                       # Number of TLB faults due to alignment restrictions
system.switch_cpus.itb.prefetchFaults               0                       # Number of TLB faults due to prefetch
system.switch_cpus.itb.domainFaults                 0                       # Number of TLB faults due to domain restrictions
system.switch_cpus.itb.permsFaults                  0                       # Number of TLB faults due to permissions restrictions
system.switch_cpus.itb.readAccesses                 0                       # DTB read accesses
system.switch_cpus.itb.writeAccesses                0                       # DTB write accesses
system.switch_cpus.itb.instAccesses                 0                       # ITB inst accesses
system.switch_cpus.itb.hits                         0                       # Total TLB (inst and data) hits
system.switch_cpus.itb.misses                       0                       # Total TLB (inst and data) misses
system.switch_cpus.itb.accesses                     0                       # Total TLB (inst and data) accesses
system.switch_cpus.itb.stage2_mmu.stage2_tlb.instHits            0                       # ITB inst hits
system.switch_cpus.itb.stage2_mmu.stage2_tlb.instMisses            0                       # ITB inst misses
system.switch_cpus.itb.stage2_mmu.stage2_tlb.readHits            0                       # DTB read hits
system.switch_cpus.itb.stage2_mmu.stage2_tlb.readMisses            0                       # DTB read misses
system.switch_cpus.itb.stage2_mmu.stage2_tlb.writeHits            0                       # DTB write hits
system.switch_cpus.itb.stage2_mmu.stage2_tlb.writeMisses            0                       # DTB write misses
system.switch_cpus.itb.stage2_mmu.stage2_tlb.inserts            0                       # Number of times an entry is inserted into the TLB
system.switch_cpus.itb.stage2_mmu.stage2_tlb.flushTlb            0                       # Number of times complete TLB was flushed
system.switch_cpus.itb.stage2_mmu.stage2_tlb.flushTlbMva            0                       # Number of times TLB was flushed by MVA
system.switch_cpus.itb.stage2_mmu.stage2_tlb.flushTlbMvaAsid            0                       # Number of times TLB was flushed by MVA & ASID
system.switch_cpus.itb.stage2_mmu.stage2_tlb.flushTlbAsid            0                       # Number of times TLB was flushed by ASID
system.switch_cpus.itb.stage2_mmu.stage2_tlb.flushedEntries            0                       # Number of entries that have been flushed from TLB
system.switch_cpus.itb.stage2_mmu.stage2_tlb.alignFaults            0                       # Number of TLB faults due to alignment restrictions
system.switch_cpus.itb.stage2_mmu.stage2_tlb.prefetchFaults            0                       # Number of TLB faults due to prefetch
system.switch_cpus.itb.stage2_mmu.stage2_tlb.domainFaults            0                       # Number of TLB faults due to domain restrictions
system.switch_cpus.itb.stage2_mmu.stage2_tlb.permsFaults            0                       # Number of TLB faults due to permissions restrictions
system.switch_cpus.itb.stage2_mmu.stage2_tlb.readAccesses            0                       # DTB read accesses
system.switch_cpus.itb.stage2_mmu.stage2_tlb.writeAccesses            0                       # DTB write accesses
system.switch_cpus.itb.stage2_mmu.stage2_tlb.instAccesses            0                       # ITB inst accesses
system.switch_cpus.itb.stage2_mmu.stage2_tlb.hits            0                       # Total TLB (inst and data) hits
system.switch_cpus.itb.stage2_mmu.stage2_tlb.misses            0                       # Total TLB (inst and data) misses
system.switch_cpus.itb.stage2_mmu.stage2_tlb.accesses            0                       # Total TLB (inst and data) accesses
system.switch_cpus.itb.stage2_mmu.stage2_tlb.walker.walks            0                       # Table walker walks requested
system.switch_cpus.itb.stage2_mmu.stage2_tlb.walker.requestOrigin_Requested::Data            0                       # Table walker requests started/completed, data/inst
system.switch_cpus.itb.stage2_mmu.stage2_tlb.walker.requestOrigin_Requested::Inst            0                       # Table walker requests started/completed, data/inst
system.switch_cpus.itb.stage2_mmu.stage2_tlb.walker.requestOrigin_Requested::total            0                       # Table walker requests started/completed, data/inst
system.switch_cpus.itb.stage2_mmu.stage2_tlb.walker.requestOrigin_Completed::Data            0                       # Table walker requests started/completed, data/inst
system.switch_cpus.itb.stage2_mmu.stage2_tlb.walker.requestOrigin_Completed::Inst            0                       # Table walker requests started/completed, data/inst
system.switch_cpus.itb.stage2_mmu.stage2_tlb.walker.requestOrigin_Completed::total            0                       # Table walker requests started/completed, data/inst
system.switch_cpus.itb.stage2_mmu.stage2_tlb.walker.requestOrigin::total            0                       # Table walker requests started/completed, data/inst
system.switch_cpus.itb.stage2_mmu.stage2_tlb.walker.power_state.pwrStateResidencyTicks::UNDEFINED 5845784647500                       # Cumulative time (in ticks) in various power states
system.switch_cpus.itb.walker.walks                 0                       # Table walker walks requested
system.switch_cpus.itb.walker.requestOrigin_Requested::Data            0                       # Table walker requests started/completed, data/inst
system.switch_cpus.itb.walker.requestOrigin_Requested::Inst            0                       # Table walker requests started/completed, data/inst
system.switch_cpus.itb.walker.requestOrigin_Requested::total            0                       # Table walker requests started/completed, data/inst
system.switch_cpus.itb.walker.requestOrigin_Completed::Data            0                       # Table walker requests started/completed, data/inst
system.switch_cpus.itb.walker.requestOrigin_Completed::Inst            0                       # Table walker requests started/completed, data/inst
system.switch_cpus.itb.walker.requestOrigin_Completed::total            0                       # Table walker requests started/completed, data/inst
system.switch_cpus.itb.walker.requestOrigin::total            0                       # Table walker requests started/completed, data/inst
system.switch_cpus.itb.walker.power_state.pwrStateResidencyTicks::UNDEFINED 5845784647500                       # Cumulative time (in ticks) in various power states
system.switch_cpus.lsq0.forwLoads            26437817                       # Number of loads that had data forwarded from stores
system.switch_cpus.lsq0.squashedLoads        93302409                       # Number of loads squashed
system.switch_cpus.lsq0.ignoredResponses       148911                       # Number of memory responses ignored because the instruction is squashed
system.switch_cpus.lsq0.memOrderViolation       284130                       # Number of memory ordering violations
system.switch_cpus.lsq0.squashedStores       33376241                       # Number of stores squashed
system.switch_cpus.lsq0.rescheduledLoads      4678540                       # Number of loads that were rescheduled
system.switch_cpus.lsq0.blockedByCache          71887                       # Number of times an access to memory failed due to the cache being blocked
system.switch_cpus.power_state.pwrStateResidencyTicks::OFF 509501560500                       # Cumulative time (in ticks) in various power states
system.switch_cpus.rename.squashCycles       18983333                       # Number of cycles rename is squashing
system.switch_cpus.rename.idleCycles        379478689                       # Number of cycles rename is idle
system.switch_cpus.rename.blockCycles        69575565                       # Number of cycles rename is blocking
system.switch_cpus.rename.serializeStallCycles         6564                       # count of cycles rename stalledfor serializing inst
system.switch_cpus.rename.runCycles         497677626                       # Number of cycles rename is running
system.switch_cpus.rename.unblockCycles      51270702                       # Number of cycles rename is unblocking
system.switch_cpus.rename.renamedInsts     2691451475                       # Number of instructions processed by rename
system.switch_cpus.rename.ROBFullEvents       1023219                       # Number of times rename has blocked due to ROB full
system.switch_cpus.rename.IQFullEvents        3921252                       # Number of times rename has blocked due to IQ full
system.switch_cpus.rename.LQFullEvents       44271871                       # Number of times rename has blocked due to LQ full
system.switch_cpus.rename.SQFullEvents        1443268                       # Number of times rename has blocked due to SQ full
system.switch_cpus.rename.renamedOperands   2884596452                       # Number of destination operands rename has renamed
system.switch_cpus.rename.lookups          4245098028                       # Number of register rename lookups that rename has made
system.switch_cpus.rename.intLookups       3386005546                       # Number of integer rename lookups
system.switch_cpus.rename.vecLookups         34002280                       # Number of vector rename lookups
system.switch_cpus.rename.vecPredLookups          608                       # Number of vector predicate rename lookups
system.switch_cpus.rename.committedMaps    2300695185                       # Number of HB maps that are committed
system.switch_cpus.rename.undoneMaps        583901222                       # Number of HB maps that are undone due to squashing
system.switch_cpus.rename.serializing             235                       # count of serializing insts renamed
system.switch_cpus.rename.tempSerializing           20                       # count of temporary serializing insts renamed
system.switch_cpus.rename.skidInsts          25614422                       # count of insts added to the skid buffer
system.switch_cpus.rob.reads               3400372275                       # The number of ROB reads
system.switch_cpus.rob.writes              5209240033                       # The number of ROB writes
system.switch_cpus.thread0.numInsts        2000000000                       # Number of Instructions committed
system.switch_cpus.thread0.numOps          2148782969                       # Number of Ops committed
system.switch_cpus.thread0.numMemRefs               0                       # Number of Memory References
system.tol2bus.trans_dist::ReadResp           3757717                       # Transaction distribution
system.tol2bus.trans_dist::WritebackDirty      2377099                       # Transaction distribution
system.tol2bus.trans_dist::WritebackClean      2772701                       # Transaction distribution
system.tol2bus.trans_dist::CleanEvict          127696                       # Transaction distribution
system.tol2bus.trans_dist::HardPFReq             1434                       # Transaction distribution
system.tol2bus.trans_dist::ReadExReq          1116793                       # Transaction distribution
system.tol2bus.trans_dist::ReadExResp         1116793                       # Transaction distribution
system.tol2bus.trans_dist::ReadCleanReq       1415341                       # Transaction distribution
system.tol2bus.trans_dist::ReadSharedReq      2342376                       # Transaction distribution
system.tol2bus.trans_dist::InvalidateReq        12531                       # Transaction distribution
system.tol2bus.trans_dist::InvalidateResp        12531                       # Transaction distribution
system.tol2bus.pkt_count_system.cpu.icache.mem_side_port::system.l2.cpu_side_port      4245511                       # Packet count per connected requestor and responder (bytes)
system.tol2bus.pkt_count_system.cpu.dcache.mem_side_port::system.l2.cpu_side_port     10414588                       # Packet count per connected requestor and responder (bytes)
system.tol2bus.pkt_count::total              14660099                       # Packet count per connected requestor and responder (bytes)
system.tol2bus.pkt_size_system.cpu.icache.mem_side_port::system.l2.cpu_side_port    181130880                       # Cumulative packet size per connected requestor and responder (bytes)
system.tol2bus.pkt_size_system.cpu.dcache.mem_side_port::system.l2.cpu_side_port    443542848                       # Cumulative packet size per connected requestor and responder (bytes)
system.tol2bus.pkt_size::total              624673728                       # Cumulative packet size per connected requestor and responder (bytes)
system.tol2bus.snoops                          392913                       # Total snoops (count)
system.tol2bus.snoopTraffic                  16882112                       # Total snoop traffic (bytes)
system.tol2bus.snoop_fanout::samples          5279954                       # Request fanout histogram
system.tol2bus.snoop_fanout::mean            0.000125                       # Request fanout histogram
system.tol2bus.snoop_fanout::stdev           0.011171                       # Request fanout histogram
system.tol2bus.snoop_fanout::underflows             0      0.00%      0.00% # Request fanout histogram
system.tol2bus.snoop_fanout::0                5279295     99.99%     99.99% # Request fanout histogram
system.tol2bus.snoop_fanout::1                    659      0.01%    100.00% # Request fanout histogram
system.tol2bus.snoop_fanout::2                      0      0.00%    100.00% # Request fanout histogram
system.tol2bus.snoop_fanout::overflows              0      0.00%    100.00% # Request fanout histogram
system.tol2bus.snoop_fanout::min_value              0                       # Request fanout histogram
system.tol2bus.snoop_fanout::max_value              1                       # Request fanout histogram
system.tol2bus.snoop_fanout::total            5279954                       # Request fanout histogram
system.tol2bus.power_state.pwrStateResidencyTicks::UNDEFINED 5845784647500                       # Cumulative time (in ticks) in various power states
system.tol2bus.reqLayer0.occupancy         9772541500                       # Layer occupancy (ticks)
system.tol2bus.reqLayer0.utilization              1.9                       # Layer utilization (%)
system.tol2bus.respLayer0.occupancy        2123695118                       # Layer occupancy (ticks)
system.tol2bus.respLayer0.utilization             0.4                       # Layer utilization (%)
system.tol2bus.respLayer1.occupancy        5195032957                       # Layer occupancy (ticks)
system.tol2bus.respLayer1.utilization             1.0                       # Layer utilization (%)
system.voltage_domain.voltage                       1                       # Voltage in Volts

---------- End Simulation Statistics   ----------
