
---------- Begin Simulation Statistics ----------
final_tick                               5747234326500                       # Number of ticks from beginning of simulation (restored from checkpoints and never reset)
host_inst_rate                                 538959                       # Simulator instruction rate (inst/s)
host_mem_usage                               18712464                       # Number of bytes of host memory used
host_op_rate                                   586167                       # Simulator op (including micro ops) rate (op/s)
host_seconds                                  3710.85                       # Real time elapsed on the host
host_tick_rate                              128885810                       # Simulator tick rate (ticks/s)
sim_freq                                 1000000000000                       # Frequency of simulated ticks
sim_insts                                  2000000021                       # Number of instructions simulated
sim_ops                                    2175179208                       # Number of ops (including micro ops) simulated
sim_seconds                                  0.478276                       # Number of seconds simulated
sim_ticks                                478276486500                       # Number of ticks simulated
system.cpu.Branches                                 1                       # Number of branches fetched
system.cpu.committedInsts                          20                       # Number of instructions committed
system.cpu.committedOps                            20                       # Number of ops (including micro ops) committed
system.cpu.dcache.MSHRs.leapFrogMisses            296                       # number of false blocks from MSHR
system.cpu.icache.MSHRs.leapFrogMisses              0                       # number of false blocks from MSHR
system.cpu.idle_fraction                            0                       # Percentage of idle cycles
system.cpu.not_idle_fraction                        1                       # Percentage of non-idle cycles
system.cpu.numCycles                               20                       # number of cpu cycles simulated
system.cpu.numWorkItemsCompleted                    0                       # number of work items this cpu completed
system.cpu.numWorkItemsStarted                      0                       # number of work items this cpu started
system.cpu.num_busy_cycles                         20                       # Number of busy cycles
system.cpu.num_conditional_control_insts            0                       # number of instructions that are conditional controls
system.cpu.num_fp_alu_accesses                      0                       # Number of float alu accesses
system.cpu.num_fp_insts                             0                       # number of float instructions
system.cpu.num_fp_register_reads                    0                       # number of times the floating registers were read
system.cpu.num_fp_register_writes                   0                       # number of times the floating registers were written
system.cpu.num_func_calls                           0                       # number of times a function call or return occured
system.cpu.num_idle_cycles                          0                       # Number of idle cycles
system.cpu.num_int_alu_accesses                     8                       # Number of integer alu accesses
system.cpu.num_int_insts                            8                       # number of integer instructions
system.cpu.num_int_register_reads                  45                       # number of times the integer registers were read
system.cpu.num_int_register_writes                 13                       # number of times the integer registers were written
system.cpu.num_load_insts                           3                       # Number of load instructions
system.cpu.num_mem_refs                             3                       # number of memory refs
system.cpu.num_store_insts                          0                       # Number of store instructions
system.cpu.num_vec_alu_accesses                    16                       # Number of vector alu accesses
system.cpu.num_vec_insts                           16                       # number of vector instructions
system.cpu.num_vec_register_reads                  16                       # number of times the vector registers were read
system.cpu.num_vec_register_writes                 15                       # number of times the vector registers were written
system.cpu.op_class::No_OpClass                     0      0.00%      0.00% # Class of executed instruction
system.cpu.op_class::IntAlu                         4     20.00%     20.00% # Class of executed instruction
system.cpu.op_class::IntMult                        0      0.00%     20.00% # Class of executed instruction
system.cpu.op_class::IntDiv                         0      0.00%     20.00% # Class of executed instruction
system.cpu.op_class::FloatAdd                       3     15.00%     35.00% # Class of executed instruction
system.cpu.op_class::FloatCmp                       0      0.00%     35.00% # Class of executed instruction
system.cpu.op_class::FloatCvt                       2     10.00%     45.00% # Class of executed instruction
system.cpu.op_class::FloatMult                      3     15.00%     60.00% # Class of executed instruction
system.cpu.op_class::FloatMultAcc                   1      5.00%     65.00% # Class of executed instruction
system.cpu.op_class::FloatDiv                       0      0.00%     65.00% # Class of executed instruction
system.cpu.op_class::FloatMisc                      4     20.00%     85.00% # Class of executed instruction
system.cpu.op_class::FloatSqrt                      0      0.00%     85.00% # Class of executed instruction
system.cpu.op_class::SimdAdd                        0      0.00%     85.00% # Class of executed instruction
system.cpu.op_class::SimdAddAcc                     0      0.00%     85.00% # Class of executed instruction
system.cpu.op_class::SimdAlu                        0      0.00%     85.00% # Class of executed instruction
system.cpu.op_class::SimdCmp                        0      0.00%     85.00% # Class of executed instruction
system.cpu.op_class::SimdCvt                        0      0.00%     85.00% # Class of executed instruction
system.cpu.op_class::SimdMisc                       0      0.00%     85.00% # Class of executed instruction
system.cpu.op_class::SimdMult                       0      0.00%     85.00% # Class of executed instruction
system.cpu.op_class::SimdMultAcc                    0      0.00%     85.00% # Class of executed instruction
system.cpu.op_class::SimdShift                      0      0.00%     85.00% # Class of executed instruction
system.cpu.op_class::SimdShiftAcc                   0      0.00%     85.00% # Class of executed instruction
system.cpu.op_class::SimdDiv                        0      0.00%     85.00% # Class of executed instruction
system.cpu.op_class::SimdSqrt                       0      0.00%     85.00% # Class of executed instruction
system.cpu.op_class::SimdFloatAdd                   0      0.00%     85.00% # Class of executed instruction
system.cpu.op_class::SimdFloatAlu                   0      0.00%     85.00% # Class of executed instruction
system.cpu.op_class::SimdFloatCmp                   0      0.00%     85.00% # Class of executed instruction
system.cpu.op_class::SimdFloatCvt                   0      0.00%     85.00% # Class of executed instruction
system.cpu.op_class::SimdFloatDiv                   0      0.00%     85.00% # Class of executed instruction
system.cpu.op_class::SimdFloatMisc                  0      0.00%     85.00% # Class of executed instruction
system.cpu.op_class::SimdFloatMult                  0      0.00%     85.00% # Class of executed instruction
system.cpu.op_class::SimdFloatMultAcc               0      0.00%     85.00% # Class of executed instruction
system.cpu.op_class::SimdFloatSqrt                  0      0.00%     85.00% # Class of executed instruction
system.cpu.op_class::SimdReduceAdd                  0      0.00%     85.00% # Class of executed instruction
system.cpu.op_class::SimdReduceAlu                  0      0.00%     85.00% # Class of executed instruction
system.cpu.op_class::SimdReduceCmp                  0      0.00%     85.00% # Class of executed instruction
system.cpu.op_class::SimdFloatReduceAdd             0      0.00%     85.00% # Class of executed instruction
system.cpu.op_class::SimdFloatReduceCmp             0      0.00%     85.00% # Class of executed instruction
system.cpu.op_class::SimdAes                        0      0.00%     85.00% # Class of executed instruction
system.cpu.op_class::SimdAesMix                     0      0.00%     85.00% # Class of executed instruction
system.cpu.op_class::SimdSha1Hash                   0      0.00%     85.00% # Class of executed instruction
system.cpu.op_class::SimdSha1Hash2                  0      0.00%     85.00% # Class of executed instruction
system.cpu.op_class::SimdSha256Hash                 0      0.00%     85.00% # Class of executed instruction
system.cpu.op_class::SimdSha256Hash2                0      0.00%     85.00% # Class of executed instruction
system.cpu.op_class::SimdShaSigma2                  0      0.00%     85.00% # Class of executed instruction
system.cpu.op_class::SimdShaSigma3                  0      0.00%     85.00% # Class of executed instruction
system.cpu.op_class::SimdPredAlu                    0      0.00%     85.00% # Class of executed instruction
system.cpu.op_class::MemRead                        3     15.00%    100.00% # Class of executed instruction
system.cpu.op_class::MemWrite                       0      0.00%    100.00% # Class of executed instruction
system.cpu.op_class::FloatMemRead                   0      0.00%    100.00% # Class of executed instruction
system.cpu.op_class::FloatMemWrite                  0      0.00%    100.00% # Class of executed instruction
system.cpu.op_class::IprAccess                      0      0.00%    100.00% # Class of executed instruction
system.cpu.op_class::InstPrefetch                   0      0.00%    100.00% # Class of executed instruction
system.cpu.op_class::total                         20                       # Class of executed instruction
system.cpu.workload.numSyscalls                     0                       # Number of system calls
system.l2.MSHRs.leapFrogMisses                      0                       # number of false blocks from MSHR
system.membus.snoop_filter.hit_multi_requests            0                       # Number of requests hitting in the snoop filter with multiple (>1) holders of the requested data.
system.membus.snoop_filter.hit_multi_snoops            0                       # Number of snoops hitting in the snoop filter with multiple (>1) holders of the requested data.
system.membus.snoop_filter.hit_single_requests      7545830                       # Number of requests hitting in the snoop filter with a single holder of the requested data.
system.membus.snoop_filter.hit_single_snoops            0                       # Number of snoops hitting in the snoop filter with a single holder of the requested data.
system.membus.snoop_filter.tot_requests      15222821                       # Total number of requests made to the snoop filter.
system.membus.snoop_filter.tot_snoops               0                       # Total number of snoops made to the snoop filter.
system.switch_cpus.cc_regfile_reads         470641806                       # number of cc regfile reads
system.switch_cpus.cc_regfile_writes        470649894                       # number of cc regfile writes
system.switch_cpus.committedInsts          2000000001                       # Number of Instructions Simulated
system.switch_cpus.committedOps            2175179188                       # Number of Ops (including micro ops) Simulated
system.switch_cpus.cpi                       0.478276                       # CPI: Cycles Per Instruction
system.switch_cpus.cpi_total                 0.478276                       # CPI: Total CPI of All Threads
system.switch_cpus.idleCycles                    7212                       # Total number of cycles that the CPU has spent unscheduled due to idling
system.switch_cpus.iew.branchMispredicts        66650                       # Number of branch mispredicts detected at execute
system.switch_cpus.iew.exec_branches        277094342                       # Number of branches executed
system.switch_cpus.iew.exec_nop                172610                       # number of nop insts executed
system.switch_cpus.iew.exec_rate             2.337007                       # Inst execution rate
system.switch_cpus.iew.exec_refs            391886283                       # number of memory reference insts executed
system.switch_cpus.iew.exec_stores          108326439                       # Number of stores executed
system.switch_cpus.iew.exec_swp                     0                       # number of swp insts executed
system.switch_cpus.iew.iewBlockCycles        11780278                       # Number of cycles IEW is blocking
system.switch_cpus.iew.iewDispLoadInsts     223437087                       # Number of dispatched load instructions
system.switch_cpus.iew.iewDispNonSpecInsts            0                       # Number of dispatched non-speculative instructions
system.switch_cpus.iew.iewDispSquashedInsts        21411                       # Number of squashed instructions skipped by dispatch
system.switch_cpus.iew.iewDispStoreInsts    108356017                       # Number of dispatched store instructions
system.switch_cpus.iew.iewDispatchedInsts   2175712461                       # Number of instructions dispatched to IQ
system.switch_cpus.iew.iewExecLoadInsts     283559844                       # Number of load instructions executed
system.switch_cpus.iew.iewExecSquashedInsts        40171                       # Number of squashed instructions skipped in execute
system.switch_cpus.iew.iewExecutedInsts    2235471347                       # Number of executed instructions
system.switch_cpus.iew.iewIQFullEvents        1012477                       # Number of times the IQ has become full, causing a stall
system.switch_cpus.iew.iewIdleCycles                0                       # Number of cycles IEW is idle
system.switch_cpus.iew.iewLSQFullEvents      19822803                       # Number of times the LSQ has become full, causing a stall
system.switch_cpus.iew.iewSquashCycles          67749                       # Number of cycles IEW is squashing
system.switch_cpus.iew.iewUnblockCycles      21058627                       # Number of cycles IEW is unblocking
system.switch_cpus.iew.memOrderViolationEvents         1192                       # Number of memory order violations
system.switch_cpus.iew.predictedNotTakenIncorrect          421                       # Number of branches that were predicted not taken incorrectly
system.switch_cpus.iew.predictedTakenIncorrect        66229                       # Number of branches that were predicted taken incorrectly
system.switch_cpus.iew.wb_consumers        2607603784                       # num instructions consuming a value
system.switch_cpus.iew.wb_count            2175308640                       # cumulative count of insts written-back
system.switch_cpus.iew.wb_fanout             0.612307                       # average fanout of values written-back
system.switch_cpus.iew.wb_producers        1596655033                       # num instructions producing a value
system.switch_cpus.iew.wb_rate               2.274112                       # insts written-back per cycle
system.switch_cpus.iew.wb_sent             2175309784                       # cumulative count of insts sent to commit
system.switch_cpus.int_regfile_reads       1370562135                       # number of integer regfile reads
system.switch_cpus.int_regfile_writes       985425062                       # number of integer regfile writes
system.switch_cpus.ipc                       2.090841                       # IPC: Instructions Per Cycle
system.switch_cpus.ipc_total                 2.090841                       # IPC: Total IPC of All Threads
system.switch_cpus.iq.FU_type_0::No_OpClass           18      0.00%      0.00% # Type of FU issued
system.switch_cpus.iq.FU_type_0::IntAlu    1061779707     47.50%     47.50% # Type of FU issued
system.switch_cpus.iq.FU_type_0::IntMult          446      0.00%     47.50% # Type of FU issued
system.switch_cpus.iq.FU_type_0::IntDiv             0      0.00%     47.50% # Type of FU issued
system.switch_cpus.iq.FU_type_0::FloatAdd    123430362      5.52%     53.02% # Type of FU issued
system.switch_cpus.iq.FU_type_0::FloatCmp            0      0.00%     53.02% # Type of FU issued
system.switch_cpus.iq.FU_type_0::FloatCvt     45726771      2.05%     55.06% # Type of FU issued
system.switch_cpus.iq.FU_type_0::FloatMult    136222331      6.09%     61.16% # Type of FU issued
system.switch_cpus.iq.FU_type_0::FloatMultAcc    194779974      8.71%     69.87% # Type of FU issued
system.switch_cpus.iq.FU_type_0::FloatDiv     34789673      1.56%     71.43% # Type of FU issued
system.switch_cpus.iq.FU_type_0::FloatMisc    240507814     10.76%     82.18% # Type of FU issued
system.switch_cpus.iq.FU_type_0::FloatSqrt            0      0.00%     82.18% # Type of FU issued
system.switch_cpus.iq.FU_type_0::SimdAdd            0      0.00%     82.18% # Type of FU issued
system.switch_cpus.iq.FU_type_0::SimdAddAcc            0      0.00%     82.18% # Type of FU issued
system.switch_cpus.iq.FU_type_0::SimdAlu            0      0.00%     82.18% # Type of FU issued
system.switch_cpus.iq.FU_type_0::SimdCmp            0      0.00%     82.18% # Type of FU issued
system.switch_cpus.iq.FU_type_0::SimdCvt            0      0.00%     82.18% # Type of FU issued
system.switch_cpus.iq.FU_type_0::SimdMisc        42936      0.00%     82.19% # Type of FU issued
system.switch_cpus.iq.FU_type_0::SimdMult            0      0.00%     82.19% # Type of FU issued
system.switch_cpus.iq.FU_type_0::SimdMultAcc            0      0.00%     82.19% # Type of FU issued
system.switch_cpus.iq.FU_type_0::SimdShift      6333548      0.28%     82.47% # Type of FU issued
system.switch_cpus.iq.FU_type_0::SimdShiftAcc            0      0.00%     82.47% # Type of FU issued
system.switch_cpus.iq.FU_type_0::SimdDiv            0      0.00%     82.47% # Type of FU issued
system.switch_cpus.iq.FU_type_0::SimdSqrt            0      0.00%     82.47% # Type of FU issued
system.switch_cpus.iq.FU_type_0::SimdFloatAdd            0      0.00%     82.47% # Type of FU issued
system.switch_cpus.iq.FU_type_0::SimdFloatAlu            0      0.00%     82.47% # Type of FU issued
system.switch_cpus.iq.FU_type_0::SimdFloatCmp            0      0.00%     82.47% # Type of FU issued
system.switch_cpus.iq.FU_type_0::SimdFloatCvt            0      0.00%     82.47% # Type of FU issued
system.switch_cpus.iq.FU_type_0::SimdFloatDiv            0      0.00%     82.47% # Type of FU issued
system.switch_cpus.iq.FU_type_0::SimdFloatMisc            0      0.00%     82.47% # Type of FU issued
system.switch_cpus.iq.FU_type_0::SimdFloatMult            0      0.00%     82.47% # Type of FU issued
system.switch_cpus.iq.FU_type_0::SimdFloatMultAcc            0      0.00%     82.47% # Type of FU issued
system.switch_cpus.iq.FU_type_0::SimdFloatSqrt            0      0.00%     82.47% # Type of FU issued
system.switch_cpus.iq.FU_type_0::SimdReduceAdd            0      0.00%     82.47% # Type of FU issued
system.switch_cpus.iq.FU_type_0::SimdReduceAlu            0      0.00%     82.47% # Type of FU issued
system.switch_cpus.iq.FU_type_0::SimdReduceCmp            0      0.00%     82.47% # Type of FU issued
system.switch_cpus.iq.FU_type_0::SimdFloatReduceAdd            0      0.00%     82.47% # Type of FU issued
system.switch_cpus.iq.FU_type_0::SimdFloatReduceCmp            0      0.00%     82.47% # Type of FU issued
system.switch_cpus.iq.FU_type_0::SimdAes            0      0.00%     82.47% # Type of FU issued
system.switch_cpus.iq.FU_type_0::SimdAesMix            0      0.00%     82.47% # Type of FU issued
system.switch_cpus.iq.FU_type_0::SimdSha1Hash            0      0.00%     82.47% # Type of FU issued
system.switch_cpus.iq.FU_type_0::SimdSha1Hash2            0      0.00%     82.47% # Type of FU issued
system.switch_cpus.iq.FU_type_0::SimdSha256Hash            0      0.00%     82.47% # Type of FU issued
system.switch_cpus.iq.FU_type_0::SimdSha256Hash2            0      0.00%     82.47% # Type of FU issued
system.switch_cpus.iq.FU_type_0::SimdShaSigma2            0      0.00%     82.47% # Type of FU issued
system.switch_cpus.iq.FU_type_0::SimdShaSigma3            0      0.00%     82.47% # Type of FU issued
system.switch_cpus.iq.FU_type_0::SimdPredAlu            0      0.00%     82.47% # Type of FU issued
system.switch_cpus.iq.FU_type_0::MemRead    283560460     12.68%     95.15% # Type of FU issued
system.switch_cpus.iq.FU_type_0::MemWrite    108337489      4.85%    100.00% # Type of FU issued
system.switch_cpus.iq.FU_type_0::FloatMemRead            0      0.00%    100.00% # Type of FU issued
system.switch_cpus.iq.FU_type_0::FloatMemWrite            0      0.00%    100.00% # Type of FU issued
system.switch_cpus.iq.FU_type_0::IprAccess            0      0.00%    100.00% # Type of FU issued
system.switch_cpus.iq.FU_type_0::InstPrefetch            0      0.00%    100.00% # Type of FU issued
system.switch_cpus.iq.FU_type_0::total     2235511529                       # Type of FU issued
system.switch_cpus.iq.fp_alu_accesses               0                       # Number of floating point alu accesses
system.switch_cpus.iq.fp_inst_queue_reads            0                       # Number of floating instruction queue reads
system.switch_cpus.iq.fp_inst_queue_wakeup_accesses            0                       # Number of floating instruction queue wakeup accesses
system.switch_cpus.iq.fp_inst_queue_writes            0                       # Number of floating instruction queue writes
system.switch_cpus.iq.fu_busy_cnt           231738203                       # FU busy when requested
system.switch_cpus.iq.fu_busy_rate           0.103662                       # FU busy rate (busy events/executed inst)
system.switch_cpus.iq.fu_full::No_OpClass            0      0.00%      0.00% # attempts to use FU when none available
system.switch_cpus.iq.fu_full::IntAlu        13653832      5.89%      5.89% # attempts to use FU when none available
system.switch_cpus.iq.fu_full::IntMult              8      0.00%      5.89% # attempts to use FU when none available
system.switch_cpus.iq.fu_full::IntDiv               0      0.00%      5.89% # attempts to use FU when none available
system.switch_cpus.iq.fu_full::FloatAdd             0      0.00%      5.89% # attempts to use FU when none available
system.switch_cpus.iq.fu_full::FloatCmp             0      0.00%      5.89% # attempts to use FU when none available
system.switch_cpus.iq.fu_full::FloatCvt             0      0.00%      5.89% # attempts to use FU when none available
system.switch_cpus.iq.fu_full::FloatMult     52842744     22.80%     28.69% # attempts to use FU when none available
system.switch_cpus.iq.fu_full::FloatMultAcc     48786666     21.05%     49.75% # attempts to use FU when none available
system.switch_cpus.iq.fu_full::FloatDiv       1911107      0.82%     50.57% # attempts to use FU when none available
system.switch_cpus.iq.fu_full::FloatMisc    111914780     48.29%     98.87% # attempts to use FU when none available
system.switch_cpus.iq.fu_full::FloatSqrt            0      0.00%     98.87% # attempts to use FU when none available
system.switch_cpus.iq.fu_full::SimdAdd              0      0.00%     98.87% # attempts to use FU when none available
system.switch_cpus.iq.fu_full::SimdAddAcc            0      0.00%     98.87% # attempts to use FU when none available
system.switch_cpus.iq.fu_full::SimdAlu              0      0.00%     98.87% # attempts to use FU when none available
system.switch_cpus.iq.fu_full::SimdCmp              0      0.00%     98.87% # attempts to use FU when none available
system.switch_cpus.iq.fu_full::SimdCvt              0      0.00%     98.87% # attempts to use FU when none available
system.switch_cpus.iq.fu_full::SimdMisc             0      0.00%     98.87% # attempts to use FU when none available
system.switch_cpus.iq.fu_full::SimdMult             0      0.00%     98.87% # attempts to use FU when none available
system.switch_cpus.iq.fu_full::SimdMultAcc            0      0.00%     98.87% # attempts to use FU when none available
system.switch_cpus.iq.fu_full::SimdShift            0      0.00%     98.87% # attempts to use FU when none available
system.switch_cpus.iq.fu_full::SimdShiftAcc            0      0.00%     98.87% # attempts to use FU when none available
system.switch_cpus.iq.fu_full::SimdDiv              0      0.00%     98.87% # attempts to use FU when none available
system.switch_cpus.iq.fu_full::SimdSqrt             0      0.00%     98.87% # attempts to use FU when none available
system.switch_cpus.iq.fu_full::SimdFloatAdd            0      0.00%     98.87% # attempts to use FU when none available
system.switch_cpus.iq.fu_full::SimdFloatAlu            0      0.00%     98.87% # attempts to use FU when none available
system.switch_cpus.iq.fu_full::SimdFloatCmp            0      0.00%     98.87% # attempts to use FU when none available
system.switch_cpus.iq.fu_full::SimdFloatCvt            0      0.00%     98.87% # attempts to use FU when none available
system.switch_cpus.iq.fu_full::SimdFloatDiv            0      0.00%     98.87% # attempts to use FU when none available
system.switch_cpus.iq.fu_full::SimdFloatMisc            0      0.00%     98.87% # attempts to use FU when none available
system.switch_cpus.iq.fu_full::SimdFloatMult            0      0.00%     98.87% # attempts to use FU when none available
system.switch_cpus.iq.fu_full::SimdFloatMultAcc            0      0.00%     98.87% # attempts to use FU when none available
system.switch_cpus.iq.fu_full::SimdFloatSqrt            0      0.00%     98.87% # attempts to use FU when none available
system.switch_cpus.iq.fu_full::SimdReduceAdd            0      0.00%     98.87% # attempts to use FU when none available
system.switch_cpus.iq.fu_full::SimdReduceAlu            0      0.00%     98.87% # attempts to use FU when none available
system.switch_cpus.iq.fu_full::SimdReduceCmp            0      0.00%     98.87% # attempts to use FU when none available
system.switch_cpus.iq.fu_full::SimdFloatReduceAdd            0      0.00%     98.87% # attempts to use FU when none available
system.switch_cpus.iq.fu_full::SimdFloatReduceCmp            0      0.00%     98.87% # attempts to use FU when none available
system.switch_cpus.iq.fu_full::SimdAes              0      0.00%     98.87% # attempts to use FU when none available
system.switch_cpus.iq.fu_full::SimdAesMix            0      0.00%     98.87% # attempts to use FU when none available
system.switch_cpus.iq.fu_full::SimdSha1Hash            0      0.00%     98.87% # attempts to use FU when none available
system.switch_cpus.iq.fu_full::SimdSha1Hash2            0      0.00%     98.87% # attempts to use FU when none available
system.switch_cpus.iq.fu_full::SimdSha256Hash            0      0.00%     98.87% # attempts to use FU when none available
system.switch_cpus.iq.fu_full::SimdSha256Hash2            0      0.00%     98.87% # attempts to use FU when none available
system.switch_cpus.iq.fu_full::SimdShaSigma2            0      0.00%     98.87% # attempts to use FU when none available
system.switch_cpus.iq.fu_full::SimdShaSigma3            0      0.00%     98.87% # attempts to use FU when none available
system.switch_cpus.iq.fu_full::SimdPredAlu            0      0.00%     98.87% # attempts to use FU when none available
system.switch_cpus.iq.fu_full::MemRead        1506864      0.65%     99.52% # attempts to use FU when none available
system.switch_cpus.iq.fu_full::MemWrite       1122202      0.48%    100.00% # attempts to use FU when none available
system.switch_cpus.iq.fu_full::FloatMemRead            0      0.00%    100.00% # attempts to use FU when none available
system.switch_cpus.iq.fu_full::FloatMemWrite            0      0.00%    100.00% # attempts to use FU when none available
system.switch_cpus.iq.fu_full::IprAccess            0      0.00%    100.00% # attempts to use FU when none available
system.switch_cpus.iq.fu_full::InstPrefetch            0      0.00%    100.00% # attempts to use FU when none available
system.switch_cpus.iq.int_alu_accesses     1291296884                       # Number of integer alu accesses
system.switch_cpus.iq.int_inst_queue_reads   3523335651                       # Number of integer instruction queue reads
system.switch_cpus.iq.int_inst_queue_wakeup_accesses   1215319019                       # Number of integer instruction queue wakeup accesses
system.switch_cpus.iq.int_inst_queue_writes   1215731448                       # Number of integer instruction queue writes
system.switch_cpus.iq.iqInstsAdded         2175539851                       # Number of instructions added to the IQ (excludes non-spec)
system.switch_cpus.iq.iqInstsIssued        2235511529                       # Number of instructions issued
system.switch_cpus.iq.iqSquashedInstsExamined       360523                       # Number of squashed instructions iterated over during squash; mainly for profiling
system.switch_cpus.iq.iqSquashedInstsIssued         4472                       # Number of squashed instructions issued
system.switch_cpus.iq.iqSquashedOperandsExamined       466029                       # Number of squashed operands that are examined and possibly removed from graph
system.switch_cpus.iq.issued_per_cycle::samples    956545741                       # Number of insts issued each cycle
system.switch_cpus.iq.issued_per_cycle::mean     2.337067                       # Number of insts issued each cycle
system.switch_cpus.iq.issued_per_cycle::stdev     2.237877                       # Number of insts issued each cycle
system.switch_cpus.iq.issued_per_cycle::underflows            0      0.00%      0.00% # Number of insts issued each cycle
system.switch_cpus.iq.issued_per_cycle::0    242052836     25.30%     25.30% # Number of insts issued each cycle
system.switch_cpus.iq.issued_per_cycle::1    200645054     20.98%     46.28% # Number of insts issued each cycle
system.switch_cpus.iq.issued_per_cycle::2    146892951     15.36%     61.64% # Number of insts issued each cycle
system.switch_cpus.iq.issued_per_cycle::3    107583432     11.25%     72.88% # Number of insts issued each cycle
system.switch_cpus.iq.issued_per_cycle::4     87148961      9.11%     82.00% # Number of insts issued each cycle
system.switch_cpus.iq.issued_per_cycle::5     63161955      6.60%     88.60% # Number of insts issued each cycle
system.switch_cpus.iq.issued_per_cycle::6     41816250      4.37%     92.97% # Number of insts issued each cycle
system.switch_cpus.iq.issued_per_cycle::7     34927258      3.65%     96.62% # Number of insts issued each cycle
system.switch_cpus.iq.issued_per_cycle::8     32317044      3.38%    100.00% # Number of insts issued each cycle
system.switch_cpus.iq.issued_per_cycle::overflows            0      0.00%    100.00% # Number of insts issued each cycle
system.switch_cpus.iq.issued_per_cycle::min_value            0                       # Number of insts issued each cycle
system.switch_cpus.iq.issued_per_cycle::max_value            8                       # Number of insts issued each cycle
system.switch_cpus.iq.issued_per_cycle::total    956545741                       # Number of insts issued each cycle
system.switch_cpus.iq.rate                   2.337049                       # Inst issue rate
system.switch_cpus.iq.vec_alu_accesses     1175952830                       # Number of vector alu accesses
system.switch_cpus.iq.vec_inst_queue_reads   2135975812                       # Number of vector instruction queue reads
system.switch_cpus.iq.vec_inst_queue_wakeup_accesses    959989621                       # Number of vector instruction queue wakeup accesses
system.switch_cpus.iq.vec_inst_queue_writes    960170118                       # Number of vector instruction queue writes
system.switch_cpus.memDep0.conflictingLoads          356                       # Number of conflicting loads.
system.switch_cpus.memDep0.conflictingStores            0                       # Number of conflicting stores.
system.switch_cpus.memDep0.insertedLoads    223437087                       # Number of loads inserted to the mem dependence unit.
system.switch_cpus.memDep0.insertedStores    108356017                       # Number of stores inserted to the mem dependence unit.
system.switch_cpus.misc_regfile_reads      6850692308                       # number of misc regfile reads
system.switch_cpus.misc_regfile_writes      555873986                       # number of misc regfile writes
system.switch_cpus.numCycles                956552953                       # number of cpu cycles simulated
system.switch_cpus.numWorkItemsCompleted            0                       # number of work items this cpu completed
system.switch_cpus.numWorkItemsStarted              0                       # number of work items this cpu started
system.switch_cpus.timesIdled                     110                       # Number of times that the entire CPU went into an idle state and unscheduled itself
system.switch_cpus.vec_regfile_reads       1390117877                       # number of vector regfile reads
system.switch_cpus.vec_regfile_writes       908822036                       # number of vector regfile writes
system.tol2bus.snoop_filter.hit_multi_requests            0                       # Number of requests hitting in the snoop filter with multiple (>1) holders of the requested data.
system.tol2bus.snoop_filter.hit_multi_snoops            0                       # Number of snoops hitting in the snoop filter with multiple (>1) holders of the requested data.
system.tol2bus.snoop_filter.hit_single_requests      7181382                       # Number of requests hitting in the snoop filter with a single holder of the requested data.
system.tol2bus.snoop_filter.hit_single_snoops          170                       # Number of snoops hitting in the snoop filter with a single holder of the requested data.
system.tol2bus.snoop_filter.tot_requests     14363356                       # Total number of requests made to the snoop filter.
system.tol2bus.snoop_filter.tot_snoops            170                       # Total number of snoops made to the snoop filter.
system.clk_domain.clock                          1000                       # Clock period in ticks
system.cpu.dcache.demand_hits::.cpu.data            2                       # number of demand (read+write) hits
system.cpu.dcache.demand_hits::.switch_cpus.data    311432388                       # number of demand (read+write) hits
system.cpu.dcache.demand_hits::total        311432390                       # number of demand (read+write) hits
system.cpu.dcache.overall_hits::.cpu.data            2                       # number of overall hits
system.cpu.dcache.overall_hits::.switch_cpus.data    311432388                       # number of overall hits
system.cpu.dcache.overall_hits::total       311432390                       # number of overall hits
system.cpu.dcache.demand_misses::.cpu.data            1                       # number of demand (read+write) misses
system.cpu.dcache.demand_misses::.switch_cpus.data      8788836                       # number of demand (read+write) misses
system.cpu.dcache.demand_misses::total        8788837                       # number of demand (read+write) misses
system.cpu.dcache.overall_misses::.cpu.data            1                       # number of overall misses
system.cpu.dcache.overall_misses::.switch_cpus.data      8788836                       # number of overall misses
system.cpu.dcache.overall_misses::total       8788837                       # number of overall misses
system.cpu.dcache.demand_miss_latency::.switch_cpus.data 310197357158                       # number of demand (read+write) miss cycles
system.cpu.dcache.demand_miss_latency::total 310197357158                       # number of demand (read+write) miss cycles
system.cpu.dcache.overall_miss_latency::.switch_cpus.data 310197357158                       # number of overall miss cycles
system.cpu.dcache.overall_miss_latency::total 310197357158                       # number of overall miss cycles
system.cpu.dcache.demand_accesses::.cpu.data            3                       # number of demand (read+write) accesses
system.cpu.dcache.demand_accesses::.switch_cpus.data    320221224                       # number of demand (read+write) accesses
system.cpu.dcache.demand_accesses::total    320221227                       # number of demand (read+write) accesses
system.cpu.dcache.overall_accesses::.cpu.data            3                       # number of overall (read+write) accesses
system.cpu.dcache.overall_accesses::.switch_cpus.data    320221224                       # number of overall (read+write) accesses
system.cpu.dcache.overall_accesses::total    320221227                       # number of overall (read+write) accesses
system.cpu.dcache.demand_miss_rate::.cpu.data     0.333333                       # miss rate for demand accesses
system.cpu.dcache.demand_miss_rate::.switch_cpus.data     0.027446                       # miss rate for demand accesses
system.cpu.dcache.demand_miss_rate::total     0.027446                       # miss rate for demand accesses
system.cpu.dcache.overall_miss_rate::.cpu.data     0.333333                       # miss rate for overall accesses
system.cpu.dcache.overall_miss_rate::.switch_cpus.data     0.027446                       # miss rate for overall accesses
system.cpu.dcache.overall_miss_rate::total     0.027446                       # miss rate for overall accesses
system.cpu.dcache.demand_avg_miss_latency::.switch_cpus.data 35294.475532                       # average overall miss latency
system.cpu.dcache.demand_avg_miss_latency::total 35294.471516                       # average overall miss latency
system.cpu.dcache.overall_avg_miss_latency::.switch_cpus.data 35294.475532                       # average overall miss latency
system.cpu.dcache.overall_avg_miss_latency::total 35294.471516                       # average overall miss latency
system.cpu.dcache.blocked_cycles::no_mshrs     48865237                       # number of cycles access was blocked
system.cpu.dcache.blocked_cycles::no_targets            0                       # number of cycles access was blocked
system.cpu.dcache.blocked::no_mshrs           2749511                       # number of cycles access was blocked
system.cpu.dcache.blocked::no_targets               0                       # number of cycles access was blocked
system.cpu.dcache.avg_blocked_cycles::no_mshrs    17.772337                       # average number of cycles each access was blocked
system.cpu.dcache.avg_blocked_cycles::no_targets          nan                       # average number of cycles each access was blocked
system.cpu.dcache.ghost_timestamp_misses            0                       # number of times timestamp policy causes a block to be inaccessible
system.cpu.dcache.ghost_commits                     0                       # number of cache lines moved from ghost to main
system.cpu.dcache.same_leapfrogs                    0                       # number of times leapfrogging occurs with a shared MSHR request
system.cpu.dcache.writebacks::.writebacks      7181382                       # number of writebacks
system.cpu.dcache.writebacks::total           7181382                       # number of writebacks
system.cpu.dcache.demand_mshr_hits::.switch_cpus.data      1606943                       # number of demand (read+write) MSHR hits
system.cpu.dcache.demand_mshr_hits::total      1606943                       # number of demand (read+write) MSHR hits
system.cpu.dcache.overall_mshr_hits::.switch_cpus.data      1606943                       # number of overall MSHR hits
system.cpu.dcache.overall_mshr_hits::total      1606943                       # number of overall MSHR hits
system.cpu.dcache.demand_mshr_misses::.switch_cpus.data      7181893                       # number of demand (read+write) MSHR misses
system.cpu.dcache.demand_mshr_misses::total      7181893                       # number of demand (read+write) MSHR misses
system.cpu.dcache.overall_mshr_misses::.switch_cpus.data      7181893                       # number of overall MSHR misses
system.cpu.dcache.overall_mshr_misses::total      7181893                       # number of overall MSHR misses
system.cpu.dcache.demand_mshr_miss_latency::.switch_cpus.data 184946455695                       # number of demand (read+write) MSHR miss cycles
system.cpu.dcache.demand_mshr_miss_latency::total 184946455695                       # number of demand (read+write) MSHR miss cycles
system.cpu.dcache.overall_mshr_miss_latency::.switch_cpus.data 184946455695                       # number of overall MSHR miss cycles
system.cpu.dcache.overall_mshr_miss_latency::total 184946455695                       # number of overall MSHR miss cycles
system.cpu.dcache.demand_mshr_miss_rate::.switch_cpus.data     0.022428                       # mshr miss rate for demand accesses
system.cpu.dcache.demand_mshr_miss_rate::total     0.022428                       # mshr miss rate for demand accesses
system.cpu.dcache.overall_mshr_miss_rate::.switch_cpus.data     0.022428                       # mshr miss rate for overall accesses
system.cpu.dcache.overall_mshr_miss_rate::total     0.022428                       # mshr miss rate for overall accesses
system.cpu.dcache.demand_avg_mshr_miss_latency::.switch_cpus.data 25751.769860                       # average overall mshr miss latency
system.cpu.dcache.demand_avg_mshr_miss_latency::total 25751.769860                       # average overall mshr miss latency
system.cpu.dcache.overall_avg_mshr_miss_latency::.switch_cpus.data 25751.769860                       # average overall mshr miss latency
system.cpu.dcache.overall_avg_mshr_miss_latency::total 25751.769860                       # average overall mshr miss latency
system.cpu.dcache.replacements                7181382                       # number of replacements
system.cpu.dcache.ReadReq_hits::.cpu.data            2                       # number of ReadReq hits
system.cpu.dcache.ReadReq_hits::.switch_cpus.data    210421389                       # number of ReadReq hits
system.cpu.dcache.ReadReq_hits::total       210421391                       # number of ReadReq hits
system.cpu.dcache.ReadReq_misses::.cpu.data            1                       # number of ReadReq misses
system.cpu.dcache.ReadReq_misses::.switch_cpus.data      1480594                       # number of ReadReq misses
system.cpu.dcache.ReadReq_misses::total       1480595                       # number of ReadReq misses
system.cpu.dcache.ReadReq_miss_latency::.switch_cpus.data  27478365500                       # number of ReadReq miss cycles
system.cpu.dcache.ReadReq_miss_latency::total  27478365500                       # number of ReadReq miss cycles
system.cpu.dcache.ReadReq_accesses::.cpu.data            3                       # number of ReadReq accesses(hits+misses)
system.cpu.dcache.ReadReq_accesses::.switch_cpus.data    211901983                       # number of ReadReq accesses(hits+misses)
system.cpu.dcache.ReadReq_accesses::total    211901986                       # number of ReadReq accesses(hits+misses)
system.cpu.dcache.ReadReq_miss_rate::.cpu.data     0.333333                       # miss rate for ReadReq accesses
system.cpu.dcache.ReadReq_miss_rate::.switch_cpus.data     0.006987                       # miss rate for ReadReq accesses
system.cpu.dcache.ReadReq_miss_rate::total     0.006987                       # miss rate for ReadReq accesses
system.cpu.dcache.ReadReq_avg_miss_latency::.switch_cpus.data 18559.014490                       # average ReadReq miss latency
system.cpu.dcache.ReadReq_avg_miss_latency::total 18559.001955                       # average ReadReq miss latency
system.cpu.dcache.ReadReq_mshr_hits::.switch_cpus.data         4684                       # number of ReadReq MSHR hits
system.cpu.dcache.ReadReq_mshr_hits::total         4684                       # number of ReadReq MSHR hits
system.cpu.dcache.ReadReq_mshr_misses::.switch_cpus.data      1475910                       # number of ReadReq MSHR misses
system.cpu.dcache.ReadReq_mshr_misses::total      1475910                       # number of ReadReq MSHR misses
system.cpu.dcache.ReadReq_mshr_miss_latency::.switch_cpus.data  25891970000                       # number of ReadReq MSHR miss cycles
system.cpu.dcache.ReadReq_mshr_miss_latency::total  25891970000                       # number of ReadReq MSHR miss cycles
system.cpu.dcache.ReadReq_mshr_miss_rate::.switch_cpus.data     0.006965                       # mshr miss rate for ReadReq accesses
system.cpu.dcache.ReadReq_mshr_miss_rate::total     0.006965                       # mshr miss rate for ReadReq accesses
system.cpu.dcache.ReadReq_avg_mshr_miss_latency::.switch_cpus.data 17543.054793                       # average ReadReq mshr miss latency
system.cpu.dcache.ReadReq_avg_mshr_miss_latency::total 17543.054793                       # average ReadReq mshr miss latency
system.cpu.dcache.WriteReq_hits::.switch_cpus.data    101010999                       # number of WriteReq hits
system.cpu.dcache.WriteReq_hits::total      101010999                       # number of WriteReq hits
system.cpu.dcache.WriteReq_misses::.switch_cpus.data      4715986                       # number of WriteReq misses
system.cpu.dcache.WriteReq_misses::total      4715986                       # number of WriteReq misses
system.cpu.dcache.WriteReq_miss_latency::.switch_cpus.data 195691214679                       # number of WriteReq miss cycles
system.cpu.dcache.WriteReq_miss_latency::total 195691214679                       # number of WriteReq miss cycles
system.cpu.dcache.WriteReq_accesses::.switch_cpus.data    105726985                       # number of WriteReq accesses(hits+misses)
system.cpu.dcache.WriteReq_accesses::total    105726985                       # number of WriteReq accesses(hits+misses)
system.cpu.dcache.WriteReq_miss_rate::.switch_cpus.data     0.044605                       # miss rate for WriteReq accesses
system.cpu.dcache.WriteReq_miss_rate::total     0.044605                       # miss rate for WriteReq accesses
system.cpu.dcache.WriteReq_avg_miss_latency::.switch_cpus.data 41495.291691                       # average WriteReq miss latency
system.cpu.dcache.WriteReq_avg_miss_latency::total 41495.291691                       # average WriteReq miss latency
system.cpu.dcache.WriteReq_mshr_hits::.switch_cpus.data      1602259                       # number of WriteReq MSHR hits
system.cpu.dcache.WriteReq_mshr_hits::total      1602259                       # number of WriteReq MSHR hits
system.cpu.dcache.WriteReq_mshr_misses::.switch_cpus.data      3113727                       # number of WriteReq MSHR misses
system.cpu.dcache.WriteReq_mshr_misses::total      3113727                       # number of WriteReq MSHR misses
system.cpu.dcache.WriteReq_mshr_miss_latency::.switch_cpus.data  74618964716                       # number of WriteReq MSHR miss cycles
system.cpu.dcache.WriteReq_mshr_miss_latency::total  74618964716                       # number of WriteReq MSHR miss cycles
system.cpu.dcache.WriteReq_mshr_miss_rate::.switch_cpus.data     0.029451                       # mshr miss rate for WriteReq accesses
system.cpu.dcache.WriteReq_mshr_miss_rate::total     0.029451                       # mshr miss rate for WriteReq accesses
system.cpu.dcache.WriteReq_avg_mshr_miss_latency::.switch_cpus.data 23964.517350                       # average WriteReq mshr miss latency
system.cpu.dcache.WriteReq_avg_mshr_miss_latency::total 23964.517350                       # average WriteReq mshr miss latency
system.cpu.dcache.WriteLineReq_misses::.switch_cpus.data      2592256                       # number of WriteLineReq misses
system.cpu.dcache.WriteLineReq_misses::total      2592256                       # number of WriteLineReq misses
system.cpu.dcache.WriteLineReq_miss_latency::.switch_cpus.data  87027776979                       # number of WriteLineReq miss cycles
system.cpu.dcache.WriteLineReq_miss_latency::total  87027776979                       # number of WriteLineReq miss cycles
system.cpu.dcache.WriteLineReq_accesses::.switch_cpus.data      2592256                       # number of WriteLineReq accesses(hits+misses)
system.cpu.dcache.WriteLineReq_accesses::total      2592256                       # number of WriteLineReq accesses(hits+misses)
system.cpu.dcache.WriteLineReq_miss_rate::.switch_cpus.data            1                       # miss rate for WriteLineReq accesses
system.cpu.dcache.WriteLineReq_miss_rate::total            1                       # miss rate for WriteLineReq accesses
system.cpu.dcache.WriteLineReq_avg_miss_latency::.switch_cpus.data 33572.215468                       # average WriteLineReq miss latency
system.cpu.dcache.WriteLineReq_avg_miss_latency::total 33572.215468                       # average WriteLineReq miss latency
system.cpu.dcache.WriteLineReq_mshr_misses::.switch_cpus.data      2592256                       # number of WriteLineReq MSHR misses
system.cpu.dcache.WriteLineReq_mshr_misses::total      2592256                       # number of WriteLineReq MSHR misses
system.cpu.dcache.WriteLineReq_mshr_miss_latency::.switch_cpus.data  84435520979                       # number of WriteLineReq MSHR miss cycles
system.cpu.dcache.WriteLineReq_mshr_miss_latency::total  84435520979                       # number of WriteLineReq MSHR miss cycles
system.cpu.dcache.WriteLineReq_mshr_miss_rate::.switch_cpus.data            1                       # mshr miss rate for WriteLineReq accesses
system.cpu.dcache.WriteLineReq_mshr_miss_rate::total            1                       # mshr miss rate for WriteLineReq accesses
system.cpu.dcache.WriteLineReq_avg_mshr_miss_latency::.switch_cpus.data 32572.215468                       # average WriteLineReq mshr miss latency
system.cpu.dcache.WriteLineReq_avg_mshr_miss_latency::total 32572.215468                       # average WriteLineReq mshr miss latency
system.cpu.dcache.ghosttags.tagsinuse               0                       # Cycle average of tags in use
system.cpu.dcache.ghosttags.total_refs              0                       # Total number of references to valid blocks.
system.cpu.dcache.ghosttags.sampled_refs            0                       # Sample count of references to valid blocks.
system.cpu.dcache.ghosttags.avg_refs              nan                       # Average number of references to valid blocks.
system.cpu.dcache.ghosttags.warmup_cycle            0                       # Cycle when the warmup percentage was hit.
system.cpu.dcache.ghosttags.tag_accesses            0                       # Number of tag accesses
system.cpu.dcache.ghosttags.data_accesses            0                       # Number of data accesses
system.cpu.dcache.ghosttags.repl_invalid            0                       # Number of initial replacements
system.cpu.dcache.ghosttags.repl_valid_tag            0                       # Number of local replacements
system.cpu.dcache.ghosttags.repl_valid_data            0                       # Number of global replacements
system.cpu.dcache.ghosttags.power_state.pwrStateResidencyTicks::UNDEFINED 5747234326500                       # Cumulative time (in ticks) in various power states
system.cpu.dcache.power_state.pwrStateResidencyTicks::UNDEFINED 5747234326500                       # Cumulative time (in ticks) in various power states
system.cpu.dcache.tags.tagsinuse           511.969286                       # Cycle average of tags in use
system.cpu.dcache.tags.total_refs           318614284                       # Total number of references to valid blocks.
system.cpu.dcache.tags.sampled_refs           7181894                       # Sample count of references to valid blocks.
system.cpu.dcache.tags.avg_refs             44.363546                       # Average number of references to valid blocks.
system.cpu.dcache.tags.warmup_cycle      5268957841000                       # Cycle when the warmup percentage was hit.
system.cpu.dcache.tags.occ_blocks::.cpu.data     0.093175                       # Average occupied blocks per requestor
system.cpu.dcache.tags.occ_blocks::.switch_cpus.data   511.876111                       # Average occupied blocks per requestor
system.cpu.dcache.tags.occ_percent::.cpu.data     0.000182                       # Average percentage of cache occupancy
system.cpu.dcache.tags.occ_percent::.switch_cpus.data     0.999758                       # Average percentage of cache occupancy
system.cpu.dcache.tags.occ_percent::total     0.999940                       # Average percentage of cache occupancy
system.cpu.dcache.tags.occ_task_id_blocks::1024          512                       # Occupied blocks per task id
system.cpu.dcache.tags.age_task_id_blocks_1024::0          122                       # Occupied blocks per task id
system.cpu.dcache.tags.age_task_id_blocks_1024::1          380                       # Occupied blocks per task id
system.cpu.dcache.tags.age_task_id_blocks_1024::2            1                       # Occupied blocks per task id
system.cpu.dcache.tags.age_task_id_blocks_1024::4            9                       # Occupied blocks per task id
system.cpu.dcache.tags.occ_task_id_percent::1024            1                       # Percentage of cache occupancy per task id
system.cpu.dcache.tags.tag_accesses        2568951710                       # Number of tag accesses
system.cpu.dcache.tags.data_accesses       2568951710                       # Number of data accesses
system.cpu.dcache.tags.repl_invalid                 0                       # Number of initial replacements
system.cpu.dcache.tags.repl_valid_tag               0                       # Number of local replacements
system.cpu.dcache.tags.repl_valid_data              0                       # Number of global replacements
system.cpu.dcache.tags.power_state.pwrStateResidencyTicks::UNDEFINED 5747234326500                       # Cumulative time (in ticks) in various power states
system.cpu.dtb.instHits                             0                       # ITB inst hits
system.cpu.dtb.instMisses                           0                       # ITB inst misses
system.cpu.dtb.readHits                             0                       # DTB read hits
system.cpu.dtb.readMisses                           0                       # DTB read misses
system.cpu.dtb.writeHits                            0                       # DTB write hits
system.cpu.dtb.writeMisses                          0                       # DTB write misses
system.cpu.dtb.inserts                              0                       # Number of times an entry is inserted into the TLB
system.cpu.dtb.flushTlb                             2                       # Number of times complete TLB was flushed
system.cpu.dtb.flushTlbMva                          0                       # Number of times TLB was flushed by MVA
system.cpu.dtb.flushTlbMvaAsid                      0                       # Number of times TLB was flushed by MVA & ASID
system.cpu.dtb.flushTlbAsid                         0                       # Number of times TLB was flushed by ASID
system.cpu.dtb.flushedEntries                       0                       # Number of entries that have been flushed from TLB
system.cpu.dtb.alignFaults                          0                       # Number of TLB faults due to alignment restrictions
system.cpu.dtb.prefetchFaults                       0                       # Number of TLB faults due to prefetch
system.cpu.dtb.domainFaults                         0                       # Number of TLB faults due to domain restrictions
system.cpu.dtb.permsFaults                          0                       # Number of TLB faults due to permissions restrictions
system.cpu.dtb.readAccesses                         0                       # DTB read accesses
system.cpu.dtb.writeAccesses                        0                       # DTB write accesses
system.cpu.dtb.instAccesses                         0                       # ITB inst accesses
system.cpu.dtb.hits                                 0                       # Total TLB (inst and data) hits
system.cpu.dtb.misses                               0                       # Total TLB (inst and data) misses
system.cpu.dtb.accesses                             0                       # Total TLB (inst and data) accesses
system.cpu.dtb.stage2_mmu.stage2_tlb.instHits            0                       # ITB inst hits
system.cpu.dtb.stage2_mmu.stage2_tlb.instMisses            0                       # ITB inst misses
system.cpu.dtb.stage2_mmu.stage2_tlb.readHits            0                       # DTB read hits
system.cpu.dtb.stage2_mmu.stage2_tlb.readMisses            0                       # DTB read misses
system.cpu.dtb.stage2_mmu.stage2_tlb.writeHits            0                       # DTB write hits
system.cpu.dtb.stage2_mmu.stage2_tlb.writeMisses            0                       # DTB write misses
system.cpu.dtb.stage2_mmu.stage2_tlb.inserts            0                       # Number of times an entry is inserted into the TLB
system.cpu.dtb.stage2_mmu.stage2_tlb.flushTlb            0                       # Number of times complete TLB was flushed
system.cpu.dtb.stage2_mmu.stage2_tlb.flushTlbMva            0                       # Number of times TLB was flushed by MVA
system.cpu.dtb.stage2_mmu.stage2_tlb.flushTlbMvaAsid            0                       # Number of times TLB was flushed by MVA & ASID
system.cpu.dtb.stage2_mmu.stage2_tlb.flushTlbAsid            0                       # Number of times TLB was flushed by ASID
system.cpu.dtb.stage2_mmu.stage2_tlb.flushedEntries            0                       # Number of entries that have been flushed from TLB
system.cpu.dtb.stage2_mmu.stage2_tlb.alignFaults            0                       # Number of TLB faults due to alignment restrictions
system.cpu.dtb.stage2_mmu.stage2_tlb.prefetchFaults            0                       # Number of TLB faults due to prefetch
system.cpu.dtb.stage2_mmu.stage2_tlb.domainFaults            0                       # Number of TLB faults due to domain restrictions
system.cpu.dtb.stage2_mmu.stage2_tlb.permsFaults            0                       # Number of TLB faults due to permissions restrictions
system.cpu.dtb.stage2_mmu.stage2_tlb.readAccesses            0                       # DTB read accesses
system.cpu.dtb.stage2_mmu.stage2_tlb.writeAccesses            0                       # DTB write accesses
system.cpu.dtb.stage2_mmu.stage2_tlb.instAccesses            0                       # ITB inst accesses
system.cpu.dtb.stage2_mmu.stage2_tlb.hits            0                       # Total TLB (inst and data) hits
system.cpu.dtb.stage2_mmu.stage2_tlb.misses            0                       # Total TLB (inst and data) misses
system.cpu.dtb.stage2_mmu.stage2_tlb.accesses            0                       # Total TLB (inst and data) accesses
system.cpu.dtb.stage2_mmu.stage2_tlb.walker.walks            0                       # Table walker walks requested
system.cpu.dtb.stage2_mmu.stage2_tlb.walker.requestOrigin_Requested::Data            0                       # Table walker requests started/completed, data/inst
system.cpu.dtb.stage2_mmu.stage2_tlb.walker.requestOrigin_Requested::Inst            0                       # Table walker requests started/completed, data/inst
system.cpu.dtb.stage2_mmu.stage2_tlb.walker.requestOrigin_Requested::total            0                       # Table walker requests started/completed, data/inst
system.cpu.dtb.stage2_mmu.stage2_tlb.walker.requestOrigin_Completed::Data            0                       # Table walker requests started/completed, data/inst
system.cpu.dtb.stage2_mmu.stage2_tlb.walker.requestOrigin_Completed::Inst            0                       # Table walker requests started/completed, data/inst
system.cpu.dtb.stage2_mmu.stage2_tlb.walker.requestOrigin_Completed::total            0                       # Table walker requests started/completed, data/inst
system.cpu.dtb.stage2_mmu.stage2_tlb.walker.requestOrigin::total            0                       # Table walker requests started/completed, data/inst
system.cpu.dtb.stage2_mmu.stage2_tlb.walker.power_state.pwrStateResidencyTicks::UNDEFINED 5747234326500                       # Cumulative time (in ticks) in various power states
system.cpu.dtb.walker.walks                         0                       # Table walker walks requested
system.cpu.dtb.walker.requestOrigin_Requested::Data            0                       # Table walker requests started/completed, data/inst
system.cpu.dtb.walker.requestOrigin_Requested::Inst            0                       # Table walker requests started/completed, data/inst
system.cpu.dtb.walker.requestOrigin_Requested::total            0                       # Table walker requests started/completed, data/inst
system.cpu.dtb.walker.requestOrigin_Completed::Data            0                       # Table walker requests started/completed, data/inst
system.cpu.dtb.walker.requestOrigin_Completed::Inst            0                       # Table walker requests started/completed, data/inst
system.cpu.dtb.walker.requestOrigin_Completed::total            0                       # Table walker requests started/completed, data/inst
system.cpu.dtb.walker.requestOrigin::total            0                       # Table walker requests started/completed, data/inst
system.cpu.dtb.walker.power_state.pwrStateResidencyTicks::UNDEFINED 5747234326500                       # Cumulative time (in ticks) in various power states
system.cpu.icache.demand_hits::.cpu.inst           17                       # number of demand (read+write) hits
system.cpu.icache.demand_hits::.switch_cpus.inst    260887261                       # number of demand (read+write) hits
system.cpu.icache.demand_hits::total        260887278                       # number of demand (read+write) hits
system.cpu.icache.overall_hits::.cpu.inst           17                       # number of overall hits
system.cpu.icache.overall_hits::.switch_cpus.inst    260887261                       # number of overall hits
system.cpu.icache.overall_hits::total       260887278                       # number of overall hits
system.cpu.icache.demand_misses::.cpu.inst            3                       # number of demand (read+write) misses
system.cpu.icache.demand_misses::.switch_cpus.inst           91                       # number of demand (read+write) misses
system.cpu.icache.demand_misses::total             94                       # number of demand (read+write) misses
system.cpu.icache.overall_misses::.cpu.inst            3                       # number of overall misses
system.cpu.icache.overall_misses::.switch_cpus.inst           91                       # number of overall misses
system.cpu.icache.overall_misses::total            94                       # number of overall misses
system.cpu.icache.demand_miss_latency::.switch_cpus.inst      8239000                       # number of demand (read+write) miss cycles
system.cpu.icache.demand_miss_latency::total      8239000                       # number of demand (read+write) miss cycles
system.cpu.icache.overall_miss_latency::.switch_cpus.inst      8239000                       # number of overall miss cycles
system.cpu.icache.overall_miss_latency::total      8239000                       # number of overall miss cycles
system.cpu.icache.demand_accesses::.cpu.inst           20                       # number of demand (read+write) accesses
system.cpu.icache.demand_accesses::.switch_cpus.inst    260887352                       # number of demand (read+write) accesses
system.cpu.icache.demand_accesses::total    260887372                       # number of demand (read+write) accesses
system.cpu.icache.overall_accesses::.cpu.inst           20                       # number of overall (read+write) accesses
system.cpu.icache.overall_accesses::.switch_cpus.inst    260887352                       # number of overall (read+write) accesses
system.cpu.icache.overall_accesses::total    260887372                       # number of overall (read+write) accesses
system.cpu.icache.demand_miss_rate::.cpu.inst     0.150000                       # miss rate for demand accesses
system.cpu.icache.demand_miss_rate::.switch_cpus.inst     0.000000                       # miss rate for demand accesses
system.cpu.icache.demand_miss_rate::total     0.000000                       # miss rate for demand accesses
system.cpu.icache.overall_miss_rate::.cpu.inst     0.150000                       # miss rate for overall accesses
system.cpu.icache.overall_miss_rate::.switch_cpus.inst     0.000000                       # miss rate for overall accesses
system.cpu.icache.overall_miss_rate::total     0.000000                       # miss rate for overall accesses
system.cpu.icache.demand_avg_miss_latency::.switch_cpus.inst 90538.461538                       # average overall miss latency
system.cpu.icache.demand_avg_miss_latency::total 87648.936170                       # average overall miss latency
system.cpu.icache.overall_avg_miss_latency::.switch_cpus.inst 90538.461538                       # average overall miss latency
system.cpu.icache.overall_avg_miss_latency::total 87648.936170                       # average overall miss latency
system.cpu.icache.blocked_cycles::no_mshrs            0                       # number of cycles access was blocked
system.cpu.icache.blocked_cycles::no_targets            0                       # number of cycles access was blocked
system.cpu.icache.blocked::no_mshrs                 0                       # number of cycles access was blocked
system.cpu.icache.blocked::no_targets               0                       # number of cycles access was blocked
system.cpu.icache.avg_blocked_cycles::no_mshrs          nan                       # average number of cycles each access was blocked
system.cpu.icache.avg_blocked_cycles::no_targets          nan                       # average number of cycles each access was blocked
system.cpu.icache.ghost_timestamp_misses            0                       # number of times timestamp policy causes a block to be inaccessible
system.cpu.icache.ghost_commits                     0                       # number of cache lines moved from ghost to main
system.cpu.icache.same_leapfrogs                    0                       # number of times leapfrogging occurs with a shared MSHR request
system.cpu.icache.demand_mshr_hits::.switch_cpus.inst           14                       # number of demand (read+write) MSHR hits
system.cpu.icache.demand_mshr_hits::total           14                       # number of demand (read+write) MSHR hits
system.cpu.icache.overall_mshr_hits::.switch_cpus.inst           14                       # number of overall MSHR hits
system.cpu.icache.overall_mshr_hits::total           14                       # number of overall MSHR hits
system.cpu.icache.demand_mshr_misses::.switch_cpus.inst           77                       # number of demand (read+write) MSHR misses
system.cpu.icache.demand_mshr_misses::total           77                       # number of demand (read+write) MSHR misses
system.cpu.icache.overall_mshr_misses::.switch_cpus.inst           77                       # number of overall MSHR misses
system.cpu.icache.overall_mshr_misses::total           77                       # number of overall MSHR misses
system.cpu.icache.demand_mshr_miss_latency::.switch_cpus.inst      7195500                       # number of demand (read+write) MSHR miss cycles
system.cpu.icache.demand_mshr_miss_latency::total      7195500                       # number of demand (read+write) MSHR miss cycles
system.cpu.icache.overall_mshr_miss_latency::.switch_cpus.inst      7195500                       # number of overall MSHR miss cycles
system.cpu.icache.overall_mshr_miss_latency::total      7195500                       # number of overall MSHR miss cycles
system.cpu.icache.demand_mshr_miss_rate::.switch_cpus.inst     0.000000                       # mshr miss rate for demand accesses
system.cpu.icache.demand_mshr_miss_rate::total     0.000000                       # mshr miss rate for demand accesses
system.cpu.icache.overall_mshr_miss_rate::.switch_cpus.inst     0.000000                       # mshr miss rate for overall accesses
system.cpu.icache.overall_mshr_miss_rate::total     0.000000                       # mshr miss rate for overall accesses
system.cpu.icache.demand_avg_mshr_miss_latency::.switch_cpus.inst 93448.051948                       # average overall mshr miss latency
system.cpu.icache.demand_avg_mshr_miss_latency::total 93448.051948                       # average overall mshr miss latency
system.cpu.icache.overall_avg_mshr_miss_latency::.switch_cpus.inst 93448.051948                       # average overall mshr miss latency
system.cpu.icache.overall_avg_mshr_miss_latency::total 93448.051948                       # average overall mshr miss latency
system.cpu.icache.replacements                      0                       # number of replacements
system.cpu.icache.ReadReq_hits::.cpu.inst           17                       # number of ReadReq hits
system.cpu.icache.ReadReq_hits::.switch_cpus.inst    260887261                       # number of ReadReq hits
system.cpu.icache.ReadReq_hits::total       260887278                       # number of ReadReq hits
system.cpu.icache.ReadReq_misses::.cpu.inst            3                       # number of ReadReq misses
system.cpu.icache.ReadReq_misses::.switch_cpus.inst           91                       # number of ReadReq misses
system.cpu.icache.ReadReq_misses::total            94                       # number of ReadReq misses
system.cpu.icache.ReadReq_miss_latency::.switch_cpus.inst      8239000                       # number of ReadReq miss cycles
system.cpu.icache.ReadReq_miss_latency::total      8239000                       # number of ReadReq miss cycles
system.cpu.icache.ReadReq_accesses::.cpu.inst           20                       # number of ReadReq accesses(hits+misses)
system.cpu.icache.ReadReq_accesses::.switch_cpus.inst    260887352                       # number of ReadReq accesses(hits+misses)
system.cpu.icache.ReadReq_accesses::total    260887372                       # number of ReadReq accesses(hits+misses)
system.cpu.icache.ReadReq_miss_rate::.cpu.inst     0.150000                       # miss rate for ReadReq accesses
system.cpu.icache.ReadReq_miss_rate::.switch_cpus.inst     0.000000                       # miss rate for ReadReq accesses
system.cpu.icache.ReadReq_miss_rate::total     0.000000                       # miss rate for ReadReq accesses
system.cpu.icache.ReadReq_avg_miss_latency::.switch_cpus.inst 90538.461538                       # average ReadReq miss latency
system.cpu.icache.ReadReq_avg_miss_latency::total 87648.936170                       # average ReadReq miss latency
system.cpu.icache.ReadReq_mshr_hits::.switch_cpus.inst           14                       # number of ReadReq MSHR hits
system.cpu.icache.ReadReq_mshr_hits::total           14                       # number of ReadReq MSHR hits
system.cpu.icache.ReadReq_mshr_misses::.switch_cpus.inst           77                       # number of ReadReq MSHR misses
system.cpu.icache.ReadReq_mshr_misses::total           77                       # number of ReadReq MSHR misses
system.cpu.icache.ReadReq_mshr_miss_latency::.switch_cpus.inst      7195500                       # number of ReadReq MSHR miss cycles
system.cpu.icache.ReadReq_mshr_miss_latency::total      7195500                       # number of ReadReq MSHR miss cycles
system.cpu.icache.ReadReq_mshr_miss_rate::.switch_cpus.inst     0.000000                       # mshr miss rate for ReadReq accesses
system.cpu.icache.ReadReq_mshr_miss_rate::total     0.000000                       # mshr miss rate for ReadReq accesses
system.cpu.icache.ReadReq_avg_mshr_miss_latency::.switch_cpus.inst 93448.051948                       # average ReadReq mshr miss latency
system.cpu.icache.ReadReq_avg_mshr_miss_latency::total 93448.051948                       # average ReadReq mshr miss latency
system.cpu.icache.ghosttags.tagsinuse               0                       # Cycle average of tags in use
system.cpu.icache.ghosttags.total_refs              0                       # Total number of references to valid blocks.
system.cpu.icache.ghosttags.sampled_refs            0                       # Sample count of references to valid blocks.
system.cpu.icache.ghosttags.avg_refs              nan                       # Average number of references to valid blocks.
system.cpu.icache.ghosttags.warmup_cycle            0                       # Cycle when the warmup percentage was hit.
system.cpu.icache.ghosttags.tag_accesses            0                       # Number of tag accesses
system.cpu.icache.ghosttags.data_accesses            0                       # Number of data accesses
system.cpu.icache.ghosttags.repl_invalid            0                       # Number of initial replacements
system.cpu.icache.ghosttags.repl_valid_tag            0                       # Number of local replacements
system.cpu.icache.ghosttags.repl_valid_data            0                       # Number of global replacements
system.cpu.icache.ghosttags.power_state.pwrStateResidencyTicks::UNDEFINED 5747234326500                       # Cumulative time (in ticks) in various power states
system.cpu.icache.power_state.pwrStateResidencyTicks::UNDEFINED 5747234326500                       # Cumulative time (in ticks) in various power states
system.cpu.icache.tags.tagsinuse            74.667562                       # Cycle average of tags in use
system.cpu.icache.tags.total_refs           260887358                       # Total number of references to valid blocks.
system.cpu.icache.tags.sampled_refs                80                       # Sample count of references to valid blocks.
system.cpu.icache.tags.avg_refs          3261091.975000                       # Average number of references to valid blocks.
system.cpu.icache.tags.warmup_cycle      5268957840500                       # Cycle when the warmup percentage was hit.
system.cpu.icache.tags.occ_blocks::.cpu.inst     3.000000                       # Average occupied blocks per requestor
system.cpu.icache.tags.occ_blocks::.switch_cpus.inst    71.667562                       # Average occupied blocks per requestor
system.cpu.icache.tags.occ_percent::.cpu.inst     0.005859                       # Average percentage of cache occupancy
system.cpu.icache.tags.occ_percent::.switch_cpus.inst     0.139976                       # Average percentage of cache occupancy
system.cpu.icache.tags.occ_percent::total     0.145835                       # Average percentage of cache occupancy
system.cpu.icache.tags.occ_task_id_blocks::1024           80                       # Occupied blocks per task id
system.cpu.icache.tags.age_task_id_blocks_1024::4           80                       # Occupied blocks per task id
system.cpu.icache.tags.occ_task_id_percent::1024     0.156250                       # Percentage of cache occupancy per task id
system.cpu.icache.tags.tag_accesses        2087099056                       # Number of tag accesses
system.cpu.icache.tags.data_accesses       2087099056                       # Number of data accesses
system.cpu.icache.tags.repl_invalid                 0                       # Number of initial replacements
system.cpu.icache.tags.repl_valid_tag               0                       # Number of local replacements
system.cpu.icache.tags.repl_valid_data              0                       # Number of global replacements
system.cpu.icache.tags.power_state.pwrStateResidencyTicks::UNDEFINED 5747234326500                       # Cumulative time (in ticks) in various power states
system.cpu.itb.instHits                             0                       # ITB inst hits
system.cpu.itb.instMisses                           0                       # ITB inst misses
system.cpu.itb.readHits                             0                       # DTB read hits
system.cpu.itb.readMisses                           0                       # DTB read misses
system.cpu.itb.writeHits                            0                       # DTB write hits
system.cpu.itb.writeMisses                          0                       # DTB write misses
system.cpu.itb.inserts                              0                       # Number of times an entry is inserted into the TLB
system.cpu.itb.flushTlb                             2                       # Number of times complete TLB was flushed
system.cpu.itb.flushTlbMva                          0                       # Number of times TLB was flushed by MVA
system.cpu.itb.flushTlbMvaAsid                      0                       # Number of times TLB was flushed by MVA & ASID
system.cpu.itb.flushTlbAsid                         0                       # Number of times TLB was flushed by ASID
system.cpu.itb.flushedEntries                       0                       # Number of entries that have been flushed from TLB
system.cpu.itb.alignFaults                          0                       # Number of TLB faults due to alignment restrictions
system.cpu.itb.prefetchFaults                       0                       # Number of TLB faults due to prefetch
system.cpu.itb.domainFaults                         0                       # Number of TLB faults due to domain restrictions
system.cpu.itb.permsFaults                          0                       # Number of TLB faults due to permissions restrictions
system.cpu.itb.readAccesses                         0                       # DTB read accesses
system.cpu.itb.writeAccesses                        0                       # DTB write accesses
system.cpu.itb.instAccesses                         0                       # ITB inst accesses
system.cpu.itb.hits                                 0                       # Total TLB (inst and data) hits
system.cpu.itb.misses                               0                       # Total TLB (inst and data) misses
system.cpu.itb.accesses                             0                       # Total TLB (inst and data) accesses
system.cpu.itb.stage2_mmu.stage2_tlb.instHits            0                       # ITB inst hits
system.cpu.itb.stage2_mmu.stage2_tlb.instMisses            0                       # ITB inst misses
system.cpu.itb.stage2_mmu.stage2_tlb.readHits            0                       # DTB read hits
system.cpu.itb.stage2_mmu.stage2_tlb.readMisses            0                       # DTB read misses
system.cpu.itb.stage2_mmu.stage2_tlb.writeHits            0                       # DTB write hits
system.cpu.itb.stage2_mmu.stage2_tlb.writeMisses            0                       # DTB write misses
[...]
system.switch_cpus.fetch.insts             2003223203                       # Number of instructions fetch has processed
system.switch_cpus.fetch.branches           277711611                       # Number of branches that fetch encountered
system.switch_cpus.fetch.predictedBranches    168235924                       # Number of branches that fetch has predicted taken
system.switch_cpus.fetch.cycles             695571888                       # Number of cycles fetch has run and was not squashing or blocked
system.switch_cpus.fetch.squashCycles          135538                       # Number of cycles fetch has spent squashing
system.switch_cpus.fetch.miscStallCycles           17                       # Number of cycles fetch has spent waiting on interrupts,or bad addresses, or out of MSHRs
system.switch_cpus.fetch.pendingTrapStallCycles          134                       # Number of stall cycles due to pending traps
system.switch_cpus.fetch.cacheLines         260887352                       # Number of cache lines fetched
system.switch_cpus.fetch.icacheSquashes          6601                       # Number of outstanding Icache misses that were squashed
system.switch_cpus.fetch.nisnDist::samples    956545741                       # Number of instructions fetched each cycle (Total)
system.switch_cpus.fetch.nisnDist::mean      2.277522                       # Number of instructions fetched each cycle (Total)
system.switch_cpus.fetch.nisnDist::stdev     3.100239                       # Number of instructions fetched each cycle (Total)
system.switch_cpus.fetch.nisnDist::underflows            0      0.00%      0.00% # Number of instructions fetched each cycle (Total)
system.switch_cpus.fetch.nisnDist::0        557141936     58.25%     58.25% # Number of instructions fetched each cycle (Total)
system.switch_cpus.fetch.nisnDist::1         22809060      2.38%     60.63% # Number of instructions fetched each cycle (Total)
system.switch_cpus.fetch.nisnDist::2         28782397      3.01%     63.64% # Number of instructions fetched each cycle (Total)
system.switch_cpus.fetch.nisnDist::3         49315234      5.16%     68.79% # Number of instructions fetched each cycle (Total)
system.switch_cpus.fetch.nisnDist::4         59940798      6.27%     75.06% # Number of instructions fetched each cycle (Total)
system.switch_cpus.fetch.nisnDist::5         46226999      4.83%     79.89% # Number of instructions fetched each cycle (Total)
system.switch_cpus.fetch.nisnDist::6         19710556      2.06%     81.95% # Number of instructions fetched each cycle (Total)
system.switch_cpus.fetch.nisnDist::7         19877348      2.08%     84.03% # Number of instructions fetched each cycle (Total)
system.switch_cpus.fetch.nisnDist::8        152741413     15.97%    100.00% # Number of instructions fetched each cycle (Total)
system.switch_cpus.fetch.nisnDist::overflows            0      0.00%    100.00% # Number of instructions fetched each cycle (Total)
system.switch_cpus.fetch.nisnDist::min_value            0                       # Number of instructions fetched each cycle (Total)
system.switch_cpus.fetch.nisnDist::max_value            8                       # Number of instructions fetched each cycle (Total)
system.switch_cpus.fetch.nisnDist::total    956545741                       # Number of instructions fetched each cycle (Total)
system.switch_cpus.fetch.branchRate          0.290325                       # Number of branch fetches per cycle
system.switch_cpus.fetch.rate                2.094210                       # Number of inst fetches per cycle
system.switch_cpus.itb.instHits                     0                       # ITB inst hits
system.switch_cpus.itb.instMisses                   0                       # ITB inst misses
system.switch_cpus.itb.readHits                     0                       # DTB read hits
system.switch_cpus.itb.readMisses                   0                       # DTB read misses
system.switch_cpus.itb.writeHits                    0                       # DTB write hits
system.switch_cpus.itb.writeMisses                  0                       # DTB write misses
system.switch_cpus.itb.inserts                      0                       # Number of times an entry is inserted into the TLB
system.switch_cpus.itb.flushTlb                     0                       # Number of times complete TLB was flushed
system.switch_cpus.itb.flushTlbMva                  0                       # Number of times TLB was flushed by MVA
system.switch_cpus.itb.flushTlbMvaAsid              0                       # Number of times TLB was flushed by MVA & ASID
system.switch_cpus.itb.flushTlbAsid                 0                       # Number of times TLB was flushed by ASID
system.switch_cpus.itb.flushedEntries               0                       # Number of entries that have been flushed from TLB
system.switch_cpus.itb.alignFaults                  0                       # Number of TLB faults due to alignment restrictions
system.switch_cpus.itb.prefetchFaults               0                       # Number of TLB faults due to prefetch
system.switch_cpus.itb.domainFaults                 0                       # Number of TLB faults due to domain restrictions
system.switch_cpus.itb.permsFaults                  0                       # Number of TLB faults due to permissions restrictions
system.switch_cpus.itb.readAccesses                 0                       # DTB read accesses
system.switch_cpus.itb.writeAccesses                0                       # DTB write accesses
system.switch_cpus.itb.instAccesses                 0                       # ITB inst accesses
system.switch_cpus.itb.hits                         0                       # Total TLB (inst and data) hits
system.switch_cpus.itb.misses                       0                       # Total TLB (inst and data) misses
system.switch_cpus.itb.accesses                     0                       # Total TLB (inst and data) accesses
system.switch_cpus.itb.stage2_mmu.stage2_tlb.instHits            0                       # ITB inst hits
system.switch_cpus.itb.stage2_mmu.stage2_tlb.instMisses            0                       # ITB inst misses
system.switch_cpus.itb.stage2_mmu.stage2_tlb.readHits            0                       # DTB read hits
system.switch_cpus.itb.stage2_mmu.stage2_tlb.readMisses            0                       # DTB read misses
system.switch_cpus.itb.stage2_mmu.stage2_tlb.writeHits            0                       # DTB write hits
system.switch_cpus.itb.stage2_mmu.stage2_tlb.writeMisses            0                       # DTB write misses
system.switch_cpus.itb.stage2_mmu.stage2_tlb.inserts            0                       # Number of times an entry is inserted into the TLB
system.switch_cpus.itb.stage2_mmu.stage2_tlb.flushTlb            0                       # Number of times complete TLB was flushed
system.switch_cpus.itb.stage2_mmu.stage2_tlb.flushTlbMva            0                       # Number of times TLB was flushed by MVA
system.switch_cpus.itb.stage2_mmu.stage2_tlb.flushTlbMvaAsid            0                       # Number of times TLB was flushed by MVA & ASID
system.switch_cpus.itb.stage2_mmu.stage2_tlb.flushTlbAsid            0                       # Number of times TLB was flushed by ASID
system.switch_cpus.itb.stage2_mmu.stage2_tlb.flushedEntries            0                       # Number of entries that have been flushed from TLB
system.switch_cpus.itb.stage2_mmu.stage2_tlb.alignFaults            0                       # Number of TLB faults due to alignment restrictions
system.switch_cpus.itb.stage2_mmu.stage2_tlb.prefetchFaults            0                       # Number of TLB faults due to prefetch
system.switch_cpus.itb.stage2_mmu.stage2_tlb.domainFaults            0                       # Number of TLB faults due to domain restrictions
system.switch_cpus.itb.stage2_mmu.stage2_tlb.permsFaults            0                       # Number of TLB faults due to permissions restrictions
system.switch_cpus.itb.stage2_mmu.stage2_tlb.readAccesses            0                       # DTB read accesses
system.switch_cpus.itb.stage2_mmu.stage2_tlb.writeAccesses            0                       # DTB write accesses
system.switch_cpus.itb.stage2_mmu.stage2_tlb.instAccesses            0                       # ITB inst accesses
system.switch_cpus.itb.stage2_mmu.stage2_tlb.hits            0                       # Total TLB (inst and data) hits
system.switch_cpus.itb.stage2_mmu.stage2_tlb.misses            0                       # Total TLB (inst and data) misses
system.switch_cpus.itb.stage2_mmu.stage2_tlb.accesses            0                       # Total TLB (inst and data) accesses
system.switch_cpus.itb.stage2_mmu.stage2_tlb.walker.walks            0                       # Table walker walks requested
system.switch_cpus.itb.stage2_mmu.stage2_tlb.walker.requestOrigin_Requested::Data            0                       # Table walker requests started/completed, data/inst
system.switch_cpus.itb.stage2_mmu.stage2_tlb.walker.requestOrigin_Requested::Inst            0                       # Table walker requests started/completed, data/inst
system.switch_cpus.itb.stage2_mmu.stage2_tlb.walker.requestOrigin_Requested::total            0                       # Table walker requests started/completed, data/inst
system.switch_cpus.itb.stage2_mmu.stage2_tlb.walker.requestOrigin_Completed::Data            0                       # Table walker requests started/completed, data/inst
system.switch_cpus.itb.stage2_mmu.stage2_tlb.walker.requestOrigin_Completed::Inst            0                       # Table walker requests started/completed, data/inst
system.switch_cpus.itb.stage2_mmu.stage2_tlb.walker.requestOrigin_Completed::total            0                       # Table walker requests started/completed, data/inst
system.switch_cpus.itb.stage2_mmu.stage2_tlb.walker.requestOrigin::total            0                       # Table walker requests started/completed, data/inst
system.switch_cpus.itb.stage2_mmu.stage2_tlb.walker.power_state.pwrStateResidencyTicks::UNDEFINED 5747234326500                       # Cumulative time (in ticks) in various power states
system.switch_cpus.itb.walker.walks                 0                       # Table walker walks requested
system.switch_cpus.itb.walker.requestOrigin_Requested::Data            0                       # Table walker requests started/completed, data/inst
system.switch_cpus.itb.walker.requestOrigin_Requested::Inst            0                       # Table walker requests started/completed, data/inst
system.switch_cpus.itb.walker.requestOrigin_Requested::total            0                       # Table walker requests started/completed, data/inst
system.switch_cpus.itb.walker.requestOrigin_Completed::Data            0                       # Table walker requests started/completed, data/inst
system.switch_cpus.itb.walker.requestOrigin_Completed::Inst            0                       # Table walker requests started/completed, data/inst
system.switch_cpus.itb.walker.requestOrigin_Completed::total            0                       # Table walker requests started/completed, data/inst
system.switch_cpus.itb.walker.requestOrigin::total            0                       # Table walker requests started/completed, data/inst
system.switch_cpus.itb.walker.power_state.pwrStateResidencyTicks::UNDEFINED 5747234326500                       # Cumulative time (in ticks) in various power states
system.switch_cpus.lsq0.forwLoads            11514542                       # Number of loads that had data forwarded from stores
system.switch_cpus.lsq0.squashedLoads           57430                       # Number of loads squashed
system.switch_cpus.lsq0.ignoredResponses            1                       # Number of memory responses ignored because the instruction is squashed
system.switch_cpus.lsq0.memOrderViolation         1192                       # Number of memory ordering violations
system.switch_cpus.lsq0.squashedStores          36767                       # Number of stores squashed
system.switch_cpus.lsq0.rescheduledLoads     59414749                       # Number of loads that were rescheduled
system.switch_cpus.lsq0.blockedByCache        2615825                       # Number of times an access to memory failed due to the cache being blocked
system.switch_cpus.power_state.pwrStateResidencyTicks::OFF 478276486500                       # Cumulative time (in ticks) in various power states
system.switch_cpus.rename.squashCycles          67749                       # Number of cycles rename is squashing
system.switch_cpus.rename.idleCycles        150226418                       # Number of cycles rename is idle
system.switch_cpus.rename.blockCycles       275626296                       # Number of cycles rename is blocking
system.switch_cpus.rename.serializeStallCycles         1828                       # count of cycles rename stalledfor serializing inst
system.switch_cpus.rename.runCycles         260111469                       # Number of cycles rename is running
system.switch_cpus.rename.unblockCycles     270511973                       # Number of cycles rename is unblocking
system.switch_cpus.rename.renamedInsts     2175977345                       # Number of instructions processed by rename
system.switch_cpus.rename.ROBFullEvents     126810648                       # Number of times rename has blocked due to ROB full
system.switch_cpus.rename.IQFullEvents       73805709                       # Number of times rename has blocked due to IQ full
system.switch_cpus.rename.LQFullEvents           3896                       # Number of times rename has blocked due to LQ full
system.switch_cpus.rename.SQFullEvents       38318492                       # Number of times rename has blocked due to SQ full
system.switch_cpus.rename.renamedOperands   2921391477                       # Number of destination operands rename has renamed
system.switch_cpus.rename.lookups          5620359887                       # Number of register rename lookups that rename has made
system.switch_cpus.rename.intLookups       1310767308                       # Number of integer rename lookups
system.switch_cpus.rename.vecLookups       1390298701                       # Number of vector rename lookups
system.switch_cpus.rename.committedMaps    2920635582                       # Number of HB maps that are committed
system.switch_cpus.rename.undoneMaps           755683                       # Number of HB maps that are undone due to squashing
system.switch_cpus.rename.serializing              15                       # count of serializing insts renamed
system.switch_cpus.rename.tempSerializing            0                       # count of temporary serializing insts renamed
system.switch_cpus.rename.skidInsts         596339990                       # count of insts added to the skid buffer
system.switch_cpus.rob.reads               2919107581                       # The number of ROB reads
system.switch_cpus.rob.writes              4351647010                       # The number of ROB writes
system.switch_cpus.thread0.numInsts        2000000001                       # Number of Instructions committed
system.switch_cpus.thread0.numOps          2175179188                       # Number of Ops committed
system.switch_cpus.thread0.numMemRefs               0                       # Number of Memory References
system.tol2bus.trans_dist::ReadResp           1475991                       # Transaction distribution
system.tol2bus.trans_dist::WritebackDirty     11335034                       # Transaction distribution
system.tol2bus.trans_dist::WritebackClean      1473185                       # Transaction distribution
system.tol2bus.trans_dist::CleanEvict         1919162                       # Transaction distribution
system.tol2bus.trans_dist::HardPFReq          6662830                       # Transaction distribution
system.tol2bus.trans_dist::ReadExReq          3108499                       # Transaction distribution
system.tol2bus.trans_dist::ReadExResp         3108499                       # Transaction distribution
system.tol2bus.trans_dist::ReadCleanReq            80                       # Transaction distribution
system.tol2bus.trans_dist::ReadSharedReq      1475911                       # Transaction distribution
system.tol2bus.trans_dist::InvalidateReq      2597484                       # Transaction distribution
system.tol2bus.trans_dist::InvalidateResp      2597484                       # Transaction distribution
system.tol2bus.pkt_count_system.cpu.icache.mem_side_port::system.l2.cpu_side_port          160                       # Packet count per connected requestor and responder (bytes)
system.tol2bus.pkt_count_system.cpu.dcache.mem_side_port::system.l2.cpu_side_port     21545170                       # Packet count per connected requestor and responder (bytes)
system.tol2bus.pkt_count::total              21545330                       # Packet count per connected requestor and responder (bytes)
system.tol2bus.pkt_size_system.cpu.icache.mem_side_port::system.l2.cpu_side_port         5120                       # Cumulative packet size per connected requestor and responder (bytes)
system.tol2bus.pkt_size_system.cpu.dcache.mem_side_port::system.l2.cpu_side_port    753010688                       # Cumulative packet size per connected requestor and responder (bytes)
system.tol2bus.pkt_size::total              753015808                       # Cumulative packet size per connected requestor and responder (bytes)
system.tol2bus.snoops                        14208829                       # Total snoops (count)
system.tol2bus.snoopTraffic                 360117568                       # Total snoop traffic (bytes)
system.tol2bus.snoop_fanout::samples         21390803                       # Request fanout histogram
system.tol2bus.snoop_fanout::mean            0.000008                       # Request fanout histogram
system.tol2bus.snoop_fanout::stdev           0.002819                       # Request fanout histogram
system.tol2bus.snoop_fanout::underflows             0      0.00%      0.00% # Request fanout histogram
system.tol2bus.snoop_fanout::0               21390633    100.00%    100.00% # Request fanout histogram
system.tol2bus.snoop_fanout::1                    170      0.00%    100.00% # Request fanout histogram
system.tol2bus.snoop_fanout::2                      0      0.00%    100.00% # Request fanout histogram
system.tol2bus.snoop_fanout::overflows              0      0.00%    100.00% # Request fanout histogram
system.tol2bus.snoop_fanout::min_value              0                       # Request fanout histogram
system.tol2bus.snoop_fanout::max_value              1                       # Request fanout histogram
system.tol2bus.snoop_fanout::total           21390803                       # Request fanout histogram
system.tol2bus.power_state.pwrStateResidencyTicks::UNDEFINED 5747234326500                       # Cumulative time (in ticks) in various power states
system.tol2bus.reqLayer0.occupancy        14363058000                       # Layer occupancy (ticks)
system.tol2bus.reqLayer0.utilization              3.0                       # Layer utilization (%)
system.tol2bus.respLayer0.occupancy            115999                       # Layer occupancy (ticks)
system.tol2bus.respLayer0.utilization             0.0                       # Layer utilization (%)
system.tol2bus.respLayer1.occupancy        8175355500                       # Layer occupancy (ticks)
system.tol2bus.respLayer1.utilization             1.7                       # Layer utilization (%)
system.voltage_domain.voltage                       1                       # Voltage in Volts

---------- End Simulation Statistics   ----------
