
---------- Begin Simulation Statistics ----------
final_tick                               6797642548500                       # Number of ticks from beginning of simulation (restored from checkpoints and never reset)
host_inst_rate                                 329524                       # Simulator instruction rate (inst/s)
host_mem_usage                               17080900                       # Number of bytes of host memory used
host_op_rate                                   386018                       # Simulator op (including micro ops) rate (op/s)
host_seconds                                  6069.36                       # Real time elapsed on the host
host_tick_rate                              137815427                       # Simulator tick rate (ticks/s)
sim_freq                                 1000000000000                       # Frequency of simulated ticks
sim_insts                                  2000000019                       # Number of instructions simulated
sim_ops                                    2342881196                       # Number of ops (including micro ops) simulated
sim_seconds                                  0.836451                       # Number of seconds simulated
sim_ticks                                836451006500                       # Number of ticks simulated
system.cpu.Branches                                 4                       # Number of branches fetched
system.cpu.committedInsts                          17                       # Number of instructions committed
system.cpu.committedOps                            20                       # Number of ops (including micro ops) committed
system.cpu.dcache.MSHRs.leapFrogMisses         680408                       # number of false blocks from MSHR
system.cpu.icache.MSHRs.leapFrogMisses              0                       # number of false blocks from MSHR
system.cpu.idle_fraction                            0                       # Percentage of idle cycles
system.cpu.not_idle_fraction                        1                       # Percentage of non-idle cycles
system.cpu.numCycles                               20                       # number of cpu cycles simulated
system.cpu.numWorkItemsCompleted                    0                       # number of work items this cpu completed
system.cpu.numWorkItemsStarted                      0                       # number of work items this cpu started
system.cpu.num_busy_cycles                         20                       # Number of busy cycles
system.cpu.num_cc_register_reads                    3                       # number of times the CC registers were read
system.cpu.num_cc_register_writes                   3                       # number of times the CC registers were written
system.cpu.num_conditional_control_insts            2                       # number of instructions that are conditional controls
system.cpu.num_fp_alu_accesses                      0                       # Number of float alu accesses
system.cpu.num_fp_insts                             0                       # number of float instructions
system.cpu.num_fp_register_reads                    0                       # number of times the floating registers were read
system.cpu.num_fp_register_writes                   0                       # number of times the floating registers were written
system.cpu.num_func_calls                           2                       # number of times a function call or return occured
system.cpu.num_idle_cycles                          0                       # Number of idle cycles
system.cpu.num_int_alu_accesses                    19                       # Number of integer alu accesses
system.cpu.num_int_insts                           19                       # number of integer instructions
system.cpu.num_int_register_reads                  26                       # number of times the integer registers were read
system.cpu.num_int_register_writes                 16                       # number of times the integer registers were written
system.cpu.num_load_insts                           2                       # Number of load instructions
system.cpu.num_mem_refs                             4                       # number of memory refs
system.cpu.num_store_insts                          2                       # Number of store instructions
system.cpu.num_vec_alu_accesses                     0                       # Number of vector alu accesses
system.cpu.num_vec_insts                            0                       # number of vector instructions
system.cpu.num_vec_register_reads                   0                       # number of times the vector registers were read
system.cpu.num_vec_register_writes                  0                       # number of times the vector registers were written
system.cpu.op_class::No_OpClass                     0      0.00%      0.00% # Class of executed instruction
system.cpu.op_class::IntAlu                        16     80.00%     80.00% # Class of executed instruction
system.cpu.op_class::IntMult                        0      0.00%     80.00% # Class of executed instruction
system.cpu.op_class::IntDiv                         0      0.00%     80.00% # Class of executed instruction
system.cpu.op_class::FloatAdd                       0      0.00%     80.00% # Class of executed instruction
system.cpu.op_class::FloatCmp                       0      0.00%     80.00% # Class of executed instruction
system.cpu.op_class::FloatCvt                       0      0.00%     80.00% # Class of executed instruction
system.cpu.op_class::FloatMult                      0      0.00%     80.00% # Class of executed instruction
system.cpu.op_class::FloatMultAcc                   0      0.00%     80.00% # Class of executed instruction
system.cpu.op_class::FloatDiv                       0      0.00%     80.00% # Class of executed instruction
system.cpu.op_class::FloatMisc                      0      0.00%     80.00% # Class of executed instruction
system.cpu.op_class::FloatSqrt                      0      0.00%     80.00% # Class of executed instruction
system.cpu.op_class::SimdAdd                        0      0.00%     80.00% # Class of executed instruction
system.cpu.op_class::SimdAddAcc                     0      0.00%     80.00% # Class of executed instruction
system.cpu.op_class::SimdAlu                        0      0.00%     80.00% # Class of executed instruction
system.cpu.op_class::SimdCmp                        0      0.00%     80.00% # Class of executed instruction
system.cpu.op_class::SimdCvt                        0      0.00%     80.00% # Class of executed instruction
system.cpu.op_class::SimdMisc                       0      0.00%     80.00% # Class of executed instruction
system.cpu.op_class::SimdMult                       0      0.00%     80.00% # Class of executed instruction
system.cpu.op_class::SimdMultAcc                    0      0.00%     80.00% # Class of executed instruction
system.cpu.op_class::SimdShift                      0      0.00%     80.00% # Class of executed instruction
system.cpu.op_class::SimdShiftAcc                   0      0.00%     80.00% # Class of executed instruction
system.cpu.op_class::SimdDiv                        0      0.00%     80.00% # Class of executed instruction
system.cpu.op_class::SimdSqrt                       0      0.00%     80.00% # Class of executed instruction
system.cpu.op_class::SimdFloatAdd                   0      0.00%     80.00% # Class of executed instruction
system.cpu.op_class::SimdFloatAlu                   0      0.00%     80.00% # Class of executed instruction
system.cpu.op_class::SimdFloatCmp                   0      0.00%     80.00% # Class of executed instruction
system.cpu.op_class::SimdFloatCvt                   0      0.00%     80.00% # Class of executed instruction
system.cpu.op_class::SimdFloatDiv                   0      0.00%     80.00% # Class of executed instruction
system.cpu.op_class::SimdFloatMisc                  0      0.00%     80.00% # Class of executed instruction
system.cpu.op_class::SimdFloatMult                  0      0.00%     80.00% # Class of executed instruction
system.cpu.op_class::SimdFloatMultAcc               0      0.00%     80.00% # Class of executed instruction
system.cpu.op_class::SimdFloatSqrt                  0      0.00%     80.00% # Class of executed instruction
system.cpu.op_class::SimdReduceAdd                  0      0.00%     80.00% # Class of executed instruction
system.cpu.op_class::SimdReduceAlu                  0      0.00%     80.00% # Class of executed instruction
system.cpu.op_class::SimdReduceCmp                  0      0.00%     80.00% # Class of executed instruction
system.cpu.op_class::SimdFloatReduceAdd             0      0.00%     80.00% # Class of executed instruction
system.cpu.op_class::SimdFloatReduceCmp             0      0.00%     80.00% # Class of executed instruction
system.cpu.op_class::SimdAes                        0      0.00%     80.00% # Class of executed instruction
system.cpu.op_class::SimdAesMix                     0      0.00%     80.00% # Class of executed instruction
system.cpu.op_class::SimdSha1Hash                   0      0.00%     80.00% # Class of executed instruction
system.cpu.op_class::SimdSha1Hash2                  0      0.00%     80.00% # Class of executed instruction
system.cpu.op_class::SimdSha256Hash                 0      0.00%     80.00% # Class of executed instruction
system.cpu.op_class::SimdSha256Hash2                0      0.00%     80.00% # Class of executed instruction
system.cpu.op_class::SimdShaSigma2                  0      0.00%     80.00% # Class of executed instruction
system.cpu.op_class::SimdShaSigma3                  0      0.00%     80.00% # Class of executed instruction
system.cpu.op_class::SimdPredAlu                    0      0.00%     80.00% # Class of executed instruction
system.cpu.op_class::MemRead                        2     10.00%     90.00% # Class of executed instruction
system.cpu.op_class::MemWrite                       2     10.00%    100.00% # Class of executed instruction
system.cpu.op_class::FloatMemRead                   0      0.00%    100.00% # Class of executed instruction
system.cpu.op_class::FloatMemWrite                  0      0.00%    100.00% # Class of executed instruction
system.cpu.op_class::IprAccess                      0      0.00%    100.00% # Class of executed instruction
system.cpu.op_class::InstPrefetch                   0      0.00%    100.00% # Class of executed instruction
system.cpu.op_class::total                         20                       # Class of executed instruction
system.cpu.workload.numSyscalls                   194                       # Number of system calls
system.l2.MSHRs.leapFrogMisses                      1                       # number of false blocks from MSHR
system.membus.snoop_filter.hit_multi_requests            0                       # Number of requests hitting in the snoop filter with multiple (>1) holders of the requested data.
system.membus.snoop_filter.hit_multi_snoops            0                       # Number of snoops hitting in the snoop filter with multiple (>1) holders of the requested data.
system.membus.snoop_filter.hit_single_requests      3322302                       # Number of requests hitting in the snoop filter with a single holder of the requested data.
system.membus.snoop_filter.hit_single_snoops            0                       # Number of snoops hitting in the snoop filter with a single holder of the requested data.
system.membus.snoop_filter.tot_requests       6775662                       # Total number of requests made to the snoop filter.
system.membus.snoop_filter.tot_snoops               0                       # Total number of snoops made to the snoop filter.
system.switch_cpus.cc_regfile_reads         692961011                       # number of cc regfile reads
system.switch_cpus.cc_regfile_writes        669994917                       # number of cc regfile writes
system.switch_cpus.committedInsts          2000000002                       # Number of Instructions Simulated
system.switch_cpus.committedOps            2342881176                       # Number of Ops (including micro ops) Simulated
system.switch_cpus.cpi                       0.836451                       # CPI: Cycles Per Instruction
system.switch_cpus.cpi_total                 0.836451                       # CPI: Total CPI of All Threads
system.switch_cpus.idleCycles                40367188                       # Total number of cycles that the CPU has spent unscheduled due to idling
system.switch_cpus.iew.branchMispredicts     17485934                       # Number of branch mispredicts detected at execute
system.switch_cpus.iew.exec_branches        463251469                       # Number of branches executed
system.switch_cpus.iew.exec_nop               6642214                       # number of nop insts executed
system.switch_cpus.iew.exec_rate             1.574165                       # Inst execution rate
system.switch_cpus.iew.exec_refs            959697213                       # number of memory reference insts executed
system.switch_cpus.iew.exec_stores          346727374                       # Number of stores executed
system.switch_cpus.iew.exec_swp                     0                       # number of swp insts executed
system.switch_cpus.iew.iewBlockCycles       113588869                       # Number of cycles IEW is blocking
system.switch_cpus.iew.iewDispLoadInsts     610613129                       # Number of dispatched load instructions
system.switch_cpus.iew.iewDispNonSpecInsts       286141                       # Number of dispatched non-speculative instructions
system.switch_cpus.iew.iewDispSquashedInsts      4948562                       # Number of squashed instructions skipped by dispatch
system.switch_cpus.iew.iewDispStoreInsts    369937771                       # Number of dispatched store instructions
system.switch_cpus.iew.iewDispatchedInsts   2755817340                       # Number of instructions dispatched to IQ
system.switch_cpus.iew.iewExecLoadInsts     612969839                       # Number of load instructions executed
system.switch_cpus.iew.iewExecSquashedInsts     25274356                       # Number of squashed instructions skipped in execute
system.switch_cpus.iew.iewExecutedInsts    2633424238                       # Number of executed instructions
system.switch_cpus.iew.iewIQFullEvents        1890963                       # Number of times the IQ has become full, causing a stall
system.switch_cpus.iew.iewIdleCycles                0                       # Number of cycles IEW is idle
system.switch_cpus.iew.iewLSQFullEvents      81711781                       # Number of times the LSQ has become full, causing a stall
system.switch_cpus.iew.iewSquashCycles       16073961                       # Number of cycles IEW is squashing
system.switch_cpus.iew.iewUnblockCycles      84523122                       # Number of cycles IEW is unblocking
system.switch_cpus.iew.memOrderViolationEvents       349363                       # Number of memory order violations
system.switch_cpus.iew.predictedNotTakenIncorrect     10908127                       # Number of branches that were predicted not taken incorrectly
system.switch_cpus.iew.predictedTakenIncorrect      6577807                       # Number of branches that were predicted taken incorrectly
system.switch_cpus.iew.wb_consumers        2419083549                       # num instructions consuming a value
system.switch_cpus.iew.wb_count            2575337187                       # cumulative count of insts written-back
system.switch_cpus.iew.wb_fanout             0.568422                       # average fanout of values written-back
system.switch_cpus.iew.wb_producers        1375059126                       # num instructions producing a value
system.switch_cpus.iew.wb_rate               1.539442                       # insts written-back per cycle
system.switch_cpus.iew.wb_sent             2582314386                       # cumulative count of insts sent to commit
system.switch_cpus.int_regfile_reads       2960284798                       # number of integer regfile reads
system.switch_cpus.int_regfile_writes      1899330864                       # number of integer regfile writes
system.switch_cpus.ipc                       1.195527                       # IPC: Instructions Per Cycle
system.switch_cpus.ipc_total                 1.195527                       # IPC: Total IPC of All Threads
system.switch_cpus.iq.FU_type_0::No_OpClass        82231      0.00%      0.00% # Type of FU issued
system.switch_cpus.iq.FU_type_0::IntAlu    1672673161     62.91%     62.92% # Type of FU issued
system.switch_cpus.iq.FU_type_0::IntMult      5419779      0.20%     63.12% # Type of FU issued
system.switch_cpus.iq.FU_type_0::IntDiv        713593      0.03%     63.15% # Type of FU issued
system.switch_cpus.iq.FU_type_0::FloatAdd            0      0.00%     63.15% # Type of FU issued
system.switch_cpus.iq.FU_type_0::FloatCmp            0      0.00%     63.15% # Type of FU issued
system.switch_cpus.iq.FU_type_0::FloatCvt            0      0.00%     63.15% # Type of FU issued
system.switch_cpus.iq.FU_type_0::FloatMult            0      0.00%     63.15% # Type of FU issued
system.switch_cpus.iq.FU_type_0::FloatMultAcc            0      0.00%     63.15% # Type of FU issued
system.switch_cpus.iq.FU_type_0::FloatDiv            0      0.00%     63.15% # Type of FU issued
system.switch_cpus.iq.FU_type_0::FloatMisc      1920641      0.07%     63.22% # Type of FU issued
system.switch_cpus.iq.FU_type_0::FloatSqrt            0      0.00%     63.22% # Type of FU issued
system.switch_cpus.iq.FU_type_0::SimdAdd      2399710      0.09%     63.31% # Type of FU issued
system.switch_cpus.iq.FU_type_0::SimdAddAcc            3      0.00%     63.31% # Type of FU issued
system.switch_cpus.iq.FU_type_0::SimdAlu       175654      0.01%     63.32% # Type of FU issued
system.switch_cpus.iq.FU_type_0::SimdCmp       114174      0.00%     63.32% # Type of FU issued
system.switch_cpus.iq.FU_type_0::SimdCvt            0      0.00%     63.32% # Type of FU issued
system.switch_cpus.iq.FU_type_0::SimdMisc      3600196      0.14%     63.46% # Type of FU issued
system.switch_cpus.iq.FU_type_0::SimdMult            0      0.00%     63.46% # Type of FU issued
system.switch_cpus.iq.FU_type_0::SimdMultAcc            7      0.00%     63.46% # Type of FU issued
system.switch_cpus.iq.FU_type_0::SimdShift         8110      0.00%     63.46% # Type of FU issued
system.switch_cpus.iq.FU_type_0::SimdShiftAcc            0      0.00%     63.46% # Type of FU issued
system.switch_cpus.iq.FU_type_0::SimdDiv            0      0.00%     63.46% # Type of FU issued
system.switch_cpus.iq.FU_type_0::SimdSqrt            0      0.00%     63.46% # Type of FU issued
system.switch_cpus.iq.FU_type_0::SimdFloatAdd            0      0.00%     63.46% # Type of FU issued
system.switch_cpus.iq.FU_type_0::SimdFloatAlu            2      0.00%     63.46% # Type of FU issued
system.switch_cpus.iq.FU_type_0::SimdFloatCmp            0      0.00%     63.46% # Type of FU issued
system.switch_cpus.iq.FU_type_0::SimdFloatCvt            0      0.00%     63.46% # Type of FU issued
system.switch_cpus.iq.FU_type_0::SimdFloatDiv            0      0.00%     63.46% # Type of FU issued
system.switch_cpus.iq.FU_type_0::SimdFloatMisc            0      0.00%     63.46% # Type of FU issued
system.switch_cpus.iq.FU_type_0::SimdFloatMult            4      0.00%     63.46% # Type of FU issued
system.switch_cpus.iq.FU_type_0::SimdFloatMultAcc            1      0.00%     63.46% # Type of FU issued
system.switch_cpus.iq.FU_type_0::SimdFloatSqrt            0      0.00%     63.46% # Type of FU issued
system.switch_cpus.iq.FU_type_0::SimdReduceAdd            0      0.00%     63.46% # Type of FU issued
system.switch_cpus.iq.FU_type_0::SimdReduceAlu            0      0.00%     63.46% # Type of FU issued
system.switch_cpus.iq.FU_type_0::SimdReduceCmp            0      0.00%     63.46% # Type of FU issued
system.switch_cpus.iq.FU_type_0::SimdFloatReduceAdd            0      0.00%     63.46% # Type of FU issued
system.switch_cpus.iq.FU_type_0::SimdFloatReduceCmp            0      0.00%     63.46% # Type of FU issued
system.switch_cpus.iq.FU_type_0::SimdAes            0      0.00%     63.46% # Type of FU issued
system.switch_cpus.iq.FU_type_0::SimdAesMix            0      0.00%     63.46% # Type of FU issued
system.switch_cpus.iq.FU_type_0::SimdSha1Hash            0      0.00%     63.46% # Type of FU issued
system.switch_cpus.iq.FU_type_0::SimdSha1Hash2            0      0.00%     63.46% # Type of FU issued
system.switch_cpus.iq.FU_type_0::SimdSha256Hash            0      0.00%     63.46% # Type of FU issued
system.switch_cpus.iq.FU_type_0::SimdSha256Hash2            0      0.00%     63.46% # Type of FU issued
system.switch_cpus.iq.FU_type_0::SimdShaSigma2            0      0.00%     63.46% # Type of FU issued
system.switch_cpus.iq.FU_type_0::SimdShaSigma3            0      0.00%     63.46% # Type of FU issued
system.switch_cpus.iq.FU_type_0::SimdPredAlu            0      0.00%     63.46% # Type of FU issued
system.switch_cpus.iq.FU_type_0::MemRead    620615111     23.34%     86.80% # Type of FU issued
system.switch_cpus.iq.FU_type_0::MemWrite    350976219     13.20%    100.00% # Type of FU issued
system.switch_cpus.iq.FU_type_0::FloatMemRead            0      0.00%    100.00% # Type of FU issued
system.switch_cpus.iq.FU_type_0::FloatMemWrite            0      0.00%    100.00% # Type of FU issued
system.switch_cpus.iq.FU_type_0::IprAccess            0      0.00%    100.00% # Type of FU issued
system.switch_cpus.iq.FU_type_0::InstPrefetch            0      0.00%    100.00% # Type of FU issued
system.switch_cpus.iq.FU_type_0::total     2658698596                       # Type of FU issued
system.switch_cpus.iq.fp_alu_accesses               0                       # Number of floating point alu accesses
system.switch_cpus.iq.fp_inst_queue_reads            0                       # Number of floating instruction queue reads
system.switch_cpus.iq.fp_inst_queue_wakeup_accesses            0                       # Number of floating instruction queue wakeup accesses
system.switch_cpus.iq.fp_inst_queue_writes            0                       # Number of floating instruction queue writes
system.switch_cpus.iq.fu_busy_cnt            50416143                       # FU busy when requested
system.switch_cpus.iq.fu_busy_rate           0.018963                       # FU busy rate (busy events/executed inst)
system.switch_cpus.iq.fu_full::No_OpClass            0      0.00%      0.00% # attempts to use FU when none available
system.switch_cpus.iq.fu_full::IntAlu        15557268     30.86%     30.86% # attempts to use FU when none available
system.switch_cpus.iq.fu_full::IntMult          12763      0.03%     30.88% # attempts to use FU when none available
system.switch_cpus.iq.fu_full::IntDiv          176460      0.35%     31.23% # attempts to use FU when none available
system.switch_cpus.iq.fu_full::FloatAdd             0      0.00%     31.23% # attempts to use FU when none available
system.switch_cpus.iq.fu_full::FloatCmp             0      0.00%     31.23% # attempts to use FU when none available
system.switch_cpus.iq.fu_full::FloatCvt             0      0.00%     31.23% # attempts to use FU when none available
system.switch_cpus.iq.fu_full::FloatMult            0      0.00%     31.23% # attempts to use FU when none available
system.switch_cpus.iq.fu_full::FloatMultAcc            0      0.00%     31.23% # attempts to use FU when none available
system.switch_cpus.iq.fu_full::FloatDiv             0      0.00%     31.23% # attempts to use FU when none available
system.switch_cpus.iq.fu_full::FloatMisc            0      0.00%     31.23% # attempts to use FU when none available
system.switch_cpus.iq.fu_full::FloatSqrt            0      0.00%     31.23% # attempts to use FU when none available
system.switch_cpus.iq.fu_full::SimdAdd              0      0.00%     31.23% # attempts to use FU when none available
system.switch_cpus.iq.fu_full::SimdAddAcc            0      0.00%     31.23% # attempts to use FU when none available
system.switch_cpus.iq.fu_full::SimdAlu              0      0.00%     31.23% # attempts to use FU when none available
system.switch_cpus.iq.fu_full::SimdCmp              0      0.00%     31.23% # attempts to use FU when none available
system.switch_cpus.iq.fu_full::SimdCvt              0      0.00%     31.23% # attempts to use FU when none available
system.switch_cpus.iq.fu_full::SimdMisc             0      0.00%     31.23% # attempts to use FU when none available
system.switch_cpus.iq.fu_full::SimdMult             0      0.00%     31.23% # attempts to use FU when none available
system.switch_cpus.iq.fu_full::SimdMultAcc            0      0.00%     31.23% # attempts to use FU when none available
system.switch_cpus.iq.fu_full::SimdShift            0      0.00%     31.23% # attempts to use FU when none available
system.switch_cpus.iq.fu_full::SimdShiftAcc            0      0.00%     31.23% # attempts to use FU when none available
system.switch_cpus.iq.fu_full::SimdDiv              0      0.00%     31.23% # attempts to use FU when none available
system.switch_cpus.iq.fu_full::SimdSqrt             0      0.00%     31.23% # attempts to use FU when none available
system.switch_cpus.iq.fu_full::SimdFloatAdd            0      0.00%     31.23% # attempts to use FU when none available
system.switch_cpus.iq.fu_full::SimdFloatAlu            0      0.00%     31.23% # attempts to use FU when none available
system.switch_cpus.iq.fu_full::SimdFloatCmp            0      0.00%     31.23% # attempts to use FU when none available
system.switch_cpus.iq.fu_full::SimdFloatCvt            0      0.00%     31.23% # attempts to use FU when none available
system.switch_cpus.iq.fu_full::SimdFloatDiv            0      0.00%     31.23% # attempts to use FU when none available
system.switch_cpus.iq.fu_full::SimdFloatMisc            0      0.00%     31.23% # attempts to use FU when none available
system.switch_cpus.iq.fu_full::SimdFloatMult            0      0.00%     31.23% # attempts to use FU when none available
system.switch_cpus.iq.fu_full::SimdFloatMultAcc            0      0.00%     31.23% # attempts to use FU when none available
system.switch_cpus.iq.fu_full::SimdFloatSqrt            0      0.00%     31.23% # attempts to use FU when none available
system.switch_cpus.iq.fu_full::SimdReduceAdd            0      0.00%     31.23% # attempts to use FU when none available
system.switch_cpus.iq.fu_full::SimdReduceAlu            0      0.00%     31.23% # attempts to use FU when none available
system.switch_cpus.iq.fu_full::SimdReduceCmp            0      0.00%     31.23% # attempts to use FU when none available
system.switch_cpus.iq.fu_full::SimdFloatReduceAdd            0      0.00%     31.23% # attempts to use FU when none available
system.switch_cpus.iq.fu_full::SimdFloatReduceCmp            0      0.00%     31.23% # attempts to use FU when none available
system.switch_cpus.iq.fu_full::SimdAes              0      0.00%     31.23% # attempts to use FU when none available
system.switch_cpus.iq.fu_full::SimdAesMix            0      0.00%     31.23% # attempts to use FU when none available
system.switch_cpus.iq.fu_full::SimdSha1Hash            0      0.00%     31.23% # attempts to use FU when none available
system.switch_cpus.iq.fu_full::SimdSha1Hash2            0      0.00%     31.23% # attempts to use FU when none available
system.switch_cpus.iq.fu_full::SimdSha256Hash            0      0.00%     31.23% # attempts to use FU when none available
system.switch_cpus.iq.fu_full::SimdSha256Hash2            0      0.00%     31.23% # attempts to use FU when none available
system.switch_cpus.iq.fu_full::SimdShaSigma2            0      0.00%     31.23% # attempts to use FU when none available
system.switch_cpus.iq.fu_full::SimdShaSigma3            0      0.00%     31.23% # attempts to use FU when none available
system.switch_cpus.iq.fu_full::SimdPredAlu            0      0.00%     31.23% # attempts to use FU when none available
system.switch_cpus.iq.fu_full::MemRead       19504203     38.69%     69.92% # attempts to use FU when none available
system.switch_cpus.iq.fu_full::MemWrite      15165449     30.08%    100.00% # attempts to use FU when none available
system.switch_cpus.iq.fu_full::FloatMemRead            0      0.00%    100.00% # attempts to use FU when none available
system.switch_cpus.iq.fu_full::FloatMemWrite            0      0.00%    100.00% # attempts to use FU when none available
system.switch_cpus.iq.fu_full::IprAccess            0      0.00%    100.00% # attempts to use FU when none available
system.switch_cpus.iq.fu_full::InstPrefetch            0      0.00%    100.00% # attempts to use FU when none available
system.switch_cpus.iq.int_alu_accesses     2676657653                       # Number of integer alu accesses
system.switch_cpus.iq.int_inst_queue_reads   6938796984                       # Number of integer instruction queue reads
system.switch_cpus.iq.int_inst_queue_wakeup_accesses   2546167127                       # Number of integer instruction queue wakeup accesses
system.switch_cpus.iq.int_inst_queue_writes   3113720798                       # Number of integer instruction queue writes
system.switch_cpus.iq.iqInstsAdded         2748888985                       # Number of instructions added to the IQ (excludes non-spec)
system.switch_cpus.iq.iqInstsIssued        2658698596                       # Number of instructions issued
system.switch_cpus.iq.iqNonSpecInstsAdded       286141                       # Number of non-speculative instructions added to the IQ
system.switch_cpus.iq.iqSquashedInstsExamined    406293922                       # Number of squashed instructions iterated over during squash; mainly for profiling
system.switch_cpus.iq.iqSquashedInstsIssued      1780555                       # Number of squashed instructions issued
system.switch_cpus.iq.iqSquashedNonSpecRemoved       141487                       # Number of squashed non-spec instructions that were removed
system.switch_cpus.iq.iqSquashedOperandsExamined    266157266                       # Number of squashed operands that are examined and possibly removed from graph
system.switch_cpus.iq.issued_per_cycle::samples   1632535568                       # Number of insts issued each cycle
system.switch_cpus.iq.issued_per_cycle::mean     1.628570                       # Number of insts issued each cycle
system.switch_cpus.iq.issued_per_cycle::stdev     2.106359                       # Number of insts issued each cycle
system.switch_cpus.iq.issued_per_cycle::underflows            0      0.00%      0.00% # Number of insts issued each cycle
system.switch_cpus.iq.issued_per_cycle::0    794353082     48.66%     48.66% # Number of insts issued each cycle
system.switch_cpus.iq.issued_per_cycle::1    203632892     12.47%     61.13% # Number of insts issued each cycle
system.switch_cpus.iq.issued_per_cycle::2    176031523     10.78%     71.91% # Number of insts issued each cycle
system.switch_cpus.iq.issued_per_cycle::3    140223850      8.59%     80.50% # Number of insts issued each cycle
system.switch_cpus.iq.issued_per_cycle::4    115644718      7.08%     87.59% # Number of insts issued each cycle
system.switch_cpus.iq.issued_per_cycle::5     80335927      4.92%     92.51% # Number of insts issued each cycle
system.switch_cpus.iq.issued_per_cycle::6     61505545      3.77%     96.28% # Number of insts issued each cycle
system.switch_cpus.iq.issued_per_cycle::7     37424917      2.29%     98.57% # Number of insts issued each cycle
system.switch_cpus.iq.issued_per_cycle::8     23383114      1.43%    100.00% # Number of insts issued each cycle
system.switch_cpus.iq.issued_per_cycle::overflows            0      0.00%    100.00% # Number of insts issued each cycle
system.switch_cpus.iq.issued_per_cycle::min_value            0                       # Number of insts issued each cycle
system.switch_cpus.iq.issued_per_cycle::max_value            8                       # Number of insts issued each cycle
system.switch_cpus.iq.issued_per_cycle::total   1632535568                       # Number of insts issued each cycle
system.switch_cpus.iq.rate                   1.589273                       # Inst issue rate
system.switch_cpus.iq.vec_alu_accesses       32374855                       # Number of vector alu accesses
system.switch_cpus.iq.vec_inst_queue_reads     63332472                       # Number of vector instruction queue reads
system.switch_cpus.iq.vec_inst_queue_wakeup_accesses     29170060                       # Number of vector instruction queue wakeup accesses
system.switch_cpus.iq.vec_inst_queue_writes     42067482                       # Number of vector instruction queue writes
system.switch_cpus.memDep0.conflictingLoads     29378809                       # Number of conflicting loads.
system.switch_cpus.memDep0.conflictingStores     49061956                       # Number of conflicting stores.
system.switch_cpus.memDep0.insertedLoads    610613129                       # Number of loads inserted to the mem dependence unit.
system.switch_cpus.memDep0.insertedStores    369937771                       # Number of stores inserted to the mem dependence unit.
system.switch_cpus.misc_regfile_reads      6815157539                       # number of misc regfile reads
system.switch_cpus.misc_regfile_writes         144461                       # number of misc regfile writes
system.switch_cpus.numCycles               1672902756                       # number of cpu cycles simulated
system.switch_cpus.numWorkItemsCompleted            0                       # number of work items this cpu completed
system.switch_cpus.numWorkItemsStarted              0                       # number of work items this cpu started
system.switch_cpus.pred_regfile_reads          180866                       # number of predicate regfile reads
system.switch_cpus.pred_regfile_writes          97305                       # number of predicate regfile writes
system.switch_cpus.timesIdled                 8937872                       # Number of times that the entire CPU went into an idle state and unscheduled itself
system.switch_cpus.vec_regfile_reads         25935081                       # number of vector regfile reads
system.switch_cpus.vec_regfile_writes        10470955                       # number of vector regfile writes
system.tol2bus.snoop_filter.hit_multi_requests       202869                       # Number of requests hitting in the snoop filter with multiple (>1) holders of the requested data.
system.tol2bus.snoop_filter.hit_multi_snoops           12                       # Number of snoops hitting in the snoop filter with multiple (>1) holders of the requested data.
system.tol2bus.snoop_filter.hit_single_requests     38456596                       # Number of requests hitting in the snoop filter with a single holder of the requested data.
system.tol2bus.snoop_filter.hit_single_snoops        72107                       # Number of snoops hitting in the snoop filter with a single holder of the requested data.
system.tol2bus.snoop_filter.tot_requests     76918412                       # Total number of requests made to the snoop filter.
system.tol2bus.snoop_filter.tot_snoops          72119                       # Total number of snoops made to the snoop filter.
system.clk_domain.clock                          1000                       # Clock period in ticks
system.cpu.dcache.demand_hits::.cpu.data            1                       # number of demand (read+write) hits
system.cpu.dcache.demand_hits::.switch_cpus.data    806565086                       # number of demand (read+write) hits
system.cpu.dcache.demand_hits::total        806565087                       # number of demand (read+write) hits
system.cpu.dcache.overall_hits::.cpu.data            1                       # number of overall hits
system.cpu.dcache.overall_hits::.switch_cpus.data    806565087                       # number of overall hits
system.cpu.dcache.overall_hits::total       806565088                       # number of overall hits
system.cpu.dcache.demand_misses::.cpu.data            3                       # number of demand (read+write) misses
system.cpu.dcache.demand_misses::.switch_cpus.data     49583266                       # number of demand (read+write) misses
system.cpu.dcache.demand_misses::total       49583269                       # number of demand (read+write) misses
system.cpu.dcache.overall_misses::.cpu.data            3                       # number of overall misses
system.cpu.dcache.overall_misses::.switch_cpus.data     49583276                       # number of overall misses
system.cpu.dcache.overall_misses::total      49583279                       # number of overall misses
system.cpu.dcache.demand_miss_latency::.switch_cpus.data 1378441711941                       # number of demand (read+write) miss cycles
system.cpu.dcache.demand_miss_latency::total 1378441711941                       # number of demand (read+write) miss cycles
system.cpu.dcache.overall_miss_latency::.switch_cpus.data 1378441711941                       # number of overall miss cycles
system.cpu.dcache.overall_miss_latency::total 1378441711941                       # number of overall miss cycles
system.cpu.dcache.demand_accesses::.cpu.data            4                       # number of demand (read+write) accesses
system.cpu.dcache.demand_accesses::.switch_cpus.data    856148352                       # number of demand (read+write) accesses
system.cpu.dcache.demand_accesses::total    856148356                       # number of demand (read+write) accesses
system.cpu.dcache.overall_accesses::.cpu.data            4                       # number of overall (read+write) accesses
system.cpu.dcache.overall_accesses::.switch_cpus.data    856148363                       # number of overall (read+write) accesses
system.cpu.dcache.overall_accesses::total    856148367                       # number of overall (read+write) accesses
system.cpu.dcache.demand_miss_rate::.cpu.data     0.750000                       # miss rate for demand accesses
system.cpu.dcache.demand_miss_rate::.switch_cpus.data     0.057914                       # miss rate for demand accesses
system.cpu.dcache.demand_miss_rate::total     0.057914                       # miss rate for demand accesses
system.cpu.dcache.overall_miss_rate::.cpu.data     0.750000                       # miss rate for overall accesses
system.cpu.dcache.overall_miss_rate::.switch_cpus.data     0.057914                       # miss rate for overall accesses
system.cpu.dcache.overall_miss_rate::total     0.057914                       # miss rate for overall accesses
system.cpu.dcache.demand_avg_miss_latency::.switch_cpus.data 27800.542867                       # average overall miss latency
system.cpu.dcache.demand_avg_miss_latency::total 27800.541185                       # average overall miss latency
system.cpu.dcache.overall_avg_miss_latency::.switch_cpus.data 27800.537261                       # average overall miss latency
system.cpu.dcache.overall_avg_miss_latency::total 27800.535579                       # average overall miss latency
system.cpu.dcache.blocked_cycles::no_mshrs     25476037                       # number of cycles access was blocked
system.cpu.dcache.blocked_cycles::no_targets         7078                       # number of cycles access was blocked
system.cpu.dcache.blocked::no_mshrs           2133132                       # number of cycles access was blocked
system.cpu.dcache.blocked::no_targets             112                       # number of cycles access was blocked
system.cpu.dcache.avg_blocked_cycles::no_mshrs    11.943019                       # average number of cycles each access was blocked
system.cpu.dcache.avg_blocked_cycles::no_targets    63.196429                       # average number of cycles each access was blocked
system.cpu.dcache.ghost_timestamp_misses            0                       # number of times timestamp policy causes a block to be inaccessible
system.cpu.dcache.ghost_commits                     0                       # number of cache lines moved from ghost to main
system.cpu.dcache.same_leapfrogs                    0                       # number of times leapfrogging occurs with a shared MSHR request
system.cpu.dcache.writebacks::.writebacks     22587987                       # number of writebacks
system.cpu.dcache.writebacks::total          22587987                       # number of writebacks
system.cpu.dcache.demand_mshr_hits::.switch_cpus.data     26993454                       # number of demand (read+write) MSHR hits
system.cpu.dcache.demand_mshr_hits::total     26993454                       # number of demand (read+write) MSHR hits
system.cpu.dcache.overall_mshr_hits::.switch_cpus.data     26993454                       # number of overall MSHR hits
system.cpu.dcache.overall_mshr_hits::total     26993454                       # number of overall MSHR hits
system.cpu.dcache.demand_mshr_misses::.switch_cpus.data     22589812                       # number of demand (read+write) MSHR misses
system.cpu.dcache.demand_mshr_misses::total     22589812                       # number of demand (read+write) MSHR misses
system.cpu.dcache.overall_mshr_misses::.switch_cpus.data     22589822                       # number of overall MSHR misses
system.cpu.dcache.overall_mshr_misses::total     22589822                       # number of overall MSHR misses
system.cpu.dcache.demand_mshr_miss_latency::.switch_cpus.data 464112332744                       # number of demand (read+write) MSHR miss cycles
system.cpu.dcache.demand_mshr_miss_latency::total 464112332744                       # number of demand (read+write) MSHR miss cycles
system.cpu.dcache.overall_mshr_miss_latency::.switch_cpus.data 464113317244                       # number of overall MSHR miss cycles
system.cpu.dcache.overall_mshr_miss_latency::total 464113317244                       # number of overall MSHR miss cycles
system.cpu.dcache.demand_mshr_miss_rate::.switch_cpus.data     0.026385                       # mshr miss rate for demand accesses
system.cpu.dcache.demand_mshr_miss_rate::total     0.026385                       # mshr miss rate for demand accesses
system.cpu.dcache.overall_mshr_miss_rate::.switch_cpus.data     0.026385                       # mshr miss rate for overall accesses
system.cpu.dcache.overall_mshr_miss_rate::total     0.026385                       # mshr miss rate for overall accesses
system.cpu.dcache.demand_avg_mshr_miss_latency::.switch_cpus.data 20545.205633                       # average overall mshr miss latency
system.cpu.dcache.demand_avg_mshr_miss_latency::total 20545.205633                       # average overall mshr miss latency
system.cpu.dcache.overall_avg_mshr_miss_latency::.switch_cpus.data 20545.240119                       # average overall mshr miss latency
system.cpu.dcache.overall_avg_mshr_miss_latency::total 20545.240119                       # average overall mshr miss latency
system.cpu.dcache.replacements               22587987                       # number of replacements
system.cpu.dcache.ReadReq_hits::.switch_cpus.data    507130607                       # number of ReadReq hits
system.cpu.dcache.ReadReq_hits::total       507130607                       # number of ReadReq hits
system.cpu.dcache.ReadReq_misses::.cpu.data            2                       # number of ReadReq misses
system.cpu.dcache.ReadReq_misses::.switch_cpus.data     33470866                       # number of ReadReq misses
system.cpu.dcache.ReadReq_misses::total      33470868                       # number of ReadReq misses
system.cpu.dcache.ReadReq_miss_latency::.switch_cpus.data 687077376000                       # number of ReadReq miss cycles
system.cpu.dcache.ReadReq_miss_latency::total 687077376000                       # number of ReadReq miss cycles
system.cpu.dcache.ReadReq_accesses::.cpu.data            2                       # number of ReadReq accesses(hits+misses)
system.cpu.dcache.ReadReq_accesses::.switch_cpus.data    540601473                       # number of ReadReq accesses(hits+misses)
system.cpu.dcache.ReadReq_accesses::total    540601475                       # number of ReadReq accesses(hits+misses)
system.cpu.dcache.ReadReq_miss_rate::.cpu.data            1                       # miss rate for ReadReq accesses
system.cpu.dcache.ReadReq_miss_rate::.switch_cpus.data     0.061914                       # miss rate for ReadReq accesses
system.cpu.dcache.ReadReq_miss_rate::total     0.061914                       # miss rate for ReadReq accesses
system.cpu.dcache.ReadReq_avg_miss_latency::.switch_cpus.data 20527.624711                       # average ReadReq miss latency
system.cpu.dcache.ReadReq_avg_miss_latency::total 20527.623484                       # average ReadReq miss latency
system.cpu.dcache.ReadReq_mshr_hits::.switch_cpus.data     14254252                       # number of ReadReq MSHR hits
system.cpu.dcache.ReadReq_mshr_hits::total     14254252                       # number of ReadReq MSHR hits
system.cpu.dcache.ReadReq_mshr_misses::.switch_cpus.data     19216614                       # number of ReadReq MSHR misses
system.cpu.dcache.ReadReq_mshr_misses::total     19216614                       # number of ReadReq MSHR misses
system.cpu.dcache.ReadReq_mshr_miss_latency::.switch_cpus.data 348238328000                       # number of ReadReq MSHR miss cycles
system.cpu.dcache.ReadReq_mshr_miss_latency::total 348238328000                       # number of ReadReq MSHR miss cycles
system.cpu.dcache.ReadReq_mshr_miss_rate::.switch_cpus.data     0.035547                       # mshr miss rate for ReadReq accesses
system.cpu.dcache.ReadReq_mshr_miss_rate::total     0.035547                       # mshr miss rate for ReadReq accesses
system.cpu.dcache.ReadReq_avg_mshr_miss_latency::.switch_cpus.data 18121.731955                       # average ReadReq mshr miss latency
system.cpu.dcache.ReadReq_avg_mshr_miss_latency::total 18121.731955                       # average ReadReq mshr miss latency
system.cpu.dcache.WriteReq_hits::.cpu.data            1                       # number of WriteReq hits
system.cpu.dcache.WriteReq_hits::.switch_cpus.data    299233751                       # number of WriteReq hits
system.cpu.dcache.WriteReq_hits::total      299233752                       # number of WriteReq hits
system.cpu.dcache.WriteReq_misses::.cpu.data            1                       # number of WriteReq misses
system.cpu.dcache.WriteReq_misses::.switch_cpus.data     15413148                       # number of WriteReq misses
system.cpu.dcache.WriteReq_misses::total     15413149                       # number of WriteReq misses
system.cpu.dcache.WriteReq_miss_latency::.switch_cpus.data 676281370018                       # number of WriteReq miss cycles
system.cpu.dcache.WriteReq_miss_latency::total 676281370018                       # number of WriteReq miss cycles
system.cpu.dcache.WriteReq_accesses::.cpu.data            2                       # number of WriteReq accesses(hits+misses)
system.cpu.dcache.WriteReq_accesses::.switch_cpus.data    314646899                       # number of WriteReq accesses(hits+misses)
system.cpu.dcache.WriteReq_accesses::total    314646901                       # number of WriteReq accesses(hits+misses)
system.cpu.dcache.WriteReq_miss_rate::.cpu.data     0.500000                       # miss rate for WriteReq accesses
system.cpu.dcache.WriteReq_miss_rate::.switch_cpus.data     0.048986                       # miss rate for WriteReq accesses
system.cpu.dcache.WriteReq_miss_rate::total     0.048986                       # miss rate for WriteReq accesses
system.cpu.dcache.WriteReq_avg_miss_latency::.switch_cpus.data 43876.914049                       # average WriteReq miss latency
system.cpu.dcache.WriteReq_avg_miss_latency::total 43876.911202                       # average WriteReq miss latency
system.cpu.dcache.WriteReq_mshr_hits::.switch_cpus.data     12739201                       # number of WriteReq MSHR hits
system.cpu.dcache.WriteReq_mshr_hits::total     12739201                       # number of WriteReq MSHR hits
system.cpu.dcache.WriteReq_mshr_misses::.switch_cpus.data      2673947                       # number of WriteReq MSHR misses
system.cpu.dcache.WriteReq_mshr_misses::total      2673947                       # number of WriteReq MSHR misses
system.cpu.dcache.WriteReq_mshr_miss_latency::.switch_cpus.data 101490320821                       # number of WriteReq MSHR miss cycles
system.cpu.dcache.WriteReq_mshr_miss_latency::total 101490320821                       # number of WriteReq MSHR miss cycles
system.cpu.dcache.WriteReq_mshr_miss_rate::.switch_cpus.data     0.008498                       # mshr miss rate for WriteReq accesses
system.cpu.dcache.WriteReq_mshr_miss_rate::total     0.008498                       # mshr miss rate for WriteReq accesses
system.cpu.dcache.WriteReq_avg_mshr_miss_latency::.switch_cpus.data 37955.247737                       # average WriteReq mshr miss latency
system.cpu.dcache.WriteReq_avg_mshr_miss_latency::total 37955.247737                       # average WriteReq mshr miss latency
system.cpu.dcache.SoftPFReq_hits::.switch_cpus.data            1                       # number of SoftPFReq hits
system.cpu.dcache.SoftPFReq_hits::total             1                       # number of SoftPFReq hits
system.cpu.dcache.SoftPFReq_misses::.switch_cpus.data            8                       # number of SoftPFReq misses
system.cpu.dcache.SoftPFReq_misses::total            8                       # number of SoftPFReq misses
system.cpu.dcache.SoftPFReq_accesses::.switch_cpus.data            9                       # number of SoftPFReq accesses(hits+misses)
system.cpu.dcache.SoftPFReq_accesses::total            9                       # number of SoftPFReq accesses(hits+misses)
system.cpu.dcache.SoftPFReq_miss_rate::.switch_cpus.data     0.888889                       # miss rate for SoftPFReq accesses
system.cpu.dcache.SoftPFReq_miss_rate::total     0.888889                       # miss rate for SoftPFReq accesses
system.cpu.dcache.SoftPFReq_mshr_misses::.switch_cpus.data            8                       # number of SoftPFReq MSHR misses
system.cpu.dcache.SoftPFReq_mshr_misses::total            8                       # number of SoftPFReq MSHR misses
system.cpu.dcache.SoftPFReq_mshr_miss_latency::.switch_cpus.data       816000                       # number of SoftPFReq MSHR miss cycles
system.cpu.dcache.SoftPFReq_mshr_miss_latency::total       816000                       # number of SoftPFReq MSHR miss cycles
system.cpu.dcache.SoftPFReq_mshr_miss_rate::.switch_cpus.data     0.888889                       # mshr miss rate for SoftPFReq accesses
system.cpu.dcache.SoftPFReq_mshr_miss_rate::total     0.888889                       # mshr miss rate for SoftPFReq accesses
system.cpu.dcache.SoftPFReq_avg_mshr_miss_latency::.switch_cpus.data       102000                       # average SoftPFReq mshr miss latency
system.cpu.dcache.SoftPFReq_avg_mshr_miss_latency::total       102000                       # average SoftPFReq mshr miss latency
system.cpu.dcache.SoftPFExReq_misses::.switch_cpus.data            2                       # number of SoftPFExReq misses
system.cpu.dcache.SoftPFExReq_misses::total            2                       # number of SoftPFExReq misses
system.cpu.dcache.SoftPFExReq_accesses::.switch_cpus.data            2                       # number of SoftPFExReq accesses(hits+misses)
system.cpu.dcache.SoftPFExReq_accesses::total            2                       # number of SoftPFExReq accesses(hits+misses)
system.cpu.dcache.SoftPFExReq_miss_rate::.switch_cpus.data            1                       # miss rate for SoftPFExReq accesses
system.cpu.dcache.SoftPFExReq_miss_rate::total            1                       # miss rate for SoftPFExReq accesses
system.cpu.dcache.SoftPFExReq_mshr_misses::.switch_cpus.data            2                       # number of SoftPFExReq MSHR misses
system.cpu.dcache.SoftPFExReq_mshr_misses::total            2                       # number of SoftPFExReq MSHR misses
system.cpu.dcache.SoftPFExReq_mshr_miss_latency::.switch_cpus.data       168500                       # number of SoftPFExReq MSHR miss cycles
system.cpu.dcache.SoftPFExReq_mshr_miss_latency::total       168500                       # number of SoftPFExReq MSHR miss cycles
system.cpu.dcache.SoftPFExReq_mshr_miss_rate::.switch_cpus.data            1                       # mshr miss rate for SoftPFExReq accesses
system.cpu.dcache.SoftPFExReq_mshr_miss_rate::total            1                       # mshr miss rate for SoftPFExReq accesses
system.cpu.dcache.SoftPFExReq_avg_mshr_miss_latency::.switch_cpus.data        84250                       # average SoftPFExReq mshr miss latency
system.cpu.dcache.SoftPFExReq_avg_mshr_miss_latency::total        84250                       # average SoftPFExReq mshr miss latency
system.cpu.dcache.WriteLineReq_hits::.switch_cpus.data       200728                       # number of WriteLineReq hits
system.cpu.dcache.WriteLineReq_hits::total       200728                       # number of WriteLineReq hits
system.cpu.dcache.WriteLineReq_misses::.switch_cpus.data       699252                       # number of WriteLineReq misses
system.cpu.dcache.WriteLineReq_misses::total       699252                       # number of WriteLineReq misses
system.cpu.dcache.WriteLineReq_miss_latency::.switch_cpus.data  15082965923                       # number of WriteLineReq miss cycles
system.cpu.dcache.WriteLineReq_miss_latency::total  15082965923                       # number of WriteLineReq miss cycles
system.cpu.dcache.WriteLineReq_accesses::.switch_cpus.data       899980                       # number of WriteLineReq accesses(hits+misses)
system.cpu.dcache.WriteLineReq_accesses::total       899980                       # number of WriteLineReq accesses(hits+misses)
system.cpu.dcache.WriteLineReq_miss_rate::.switch_cpus.data     0.776964                       # miss rate for WriteLineReq accesses
system.cpu.dcache.WriteLineReq_miss_rate::total     0.776964                       # miss rate for WriteLineReq accesses
system.cpu.dcache.WriteLineReq_avg_miss_latency::.switch_cpus.data 21570.143415                       # average WriteLineReq miss latency
system.cpu.dcache.WriteLineReq_avg_miss_latency::total 21570.143415                       # average WriteLineReq miss latency
system.cpu.dcache.WriteLineReq_mshr_hits::.switch_cpus.data            1                       # number of WriteLineReq MSHR hits
system.cpu.dcache.WriteLineReq_mshr_hits::total            1                       # number of WriteLineReq MSHR hits
system.cpu.dcache.WriteLineReq_mshr_misses::.switch_cpus.data       699251                       # number of WriteLineReq MSHR misses
system.cpu.dcache.WriteLineReq_mshr_misses::total       699251                       # number of WriteLineReq MSHR misses
system.cpu.dcache.WriteLineReq_mshr_miss_latency::.switch_cpus.data  14383683923                       # number of WriteLineReq MSHR miss cycles
system.cpu.dcache.WriteLineReq_mshr_miss_latency::total  14383683923                       # number of WriteLineReq MSHR miss cycles
system.cpu.dcache.WriteLineReq_mshr_miss_rate::.switch_cpus.data     0.776963                       # mshr miss rate for WriteLineReq accesses
system.cpu.dcache.WriteLineReq_mshr_miss_rate::total     0.776963                       # mshr miss rate for WriteLineReq accesses
system.cpu.dcache.WriteLineReq_avg_mshr_miss_latency::.switch_cpus.data 20570.129929                       # average WriteLineReq mshr miss latency
system.cpu.dcache.WriteLineReq_avg_mshr_miss_latency::total 20570.129929                       # average WriteLineReq mshr miss latency
system.cpu.dcache.LoadLockedReq_hits::.switch_cpus.data            1                       # number of LoadLockedReq hits
system.cpu.dcache.LoadLockedReq_hits::total            1                       # number of LoadLockedReq hits
system.cpu.dcache.LoadLockedReq_misses::.switch_cpus.data            3                       # number of LoadLockedReq misses
system.cpu.dcache.LoadLockedReq_misses::total            3                       # number of LoadLockedReq misses
system.cpu.dcache.LoadLockedReq_miss_latency::.switch_cpus.data       198500                       # number of LoadLockedReq miss cycles
system.cpu.dcache.LoadLockedReq_miss_latency::total       198500                       # number of LoadLockedReq miss cycles
system.cpu.dcache.LoadLockedReq_accesses::.switch_cpus.data            4                       # number of LoadLockedReq accesses(hits+misses)
system.cpu.dcache.LoadLockedReq_accesses::total            4                       # number of LoadLockedReq accesses(hits+misses)
system.cpu.dcache.LoadLockedReq_miss_rate::.switch_cpus.data     0.750000                       # miss rate for LoadLockedReq accesses
system.cpu.dcache.LoadLockedReq_miss_rate::total     0.750000                       # miss rate for LoadLockedReq accesses
system.cpu.dcache.LoadLockedReq_avg_miss_latency::.switch_cpus.data 66166.666667                       # average LoadLockedReq miss latency
system.cpu.dcache.LoadLockedReq_avg_miss_latency::total 66166.666667                       # average LoadLockedReq miss latency
system.cpu.dcache.LoadLockedReq_mshr_misses::.switch_cpus.data            3                       # number of LoadLockedReq MSHR misses
system.cpu.dcache.LoadLockedReq_mshr_misses::total            3                       # number of LoadLockedReq MSHR misses
system.cpu.dcache.LoadLockedReq_mshr_miss_latency::.switch_cpus.data       195500                       # number of LoadLockedReq MSHR miss cycles
system.cpu.dcache.LoadLockedReq_mshr_miss_latency::total       195500                       # number of LoadLockedReq MSHR miss cycles
system.cpu.dcache.LoadLockedReq_mshr_miss_rate::.switch_cpus.data     0.750000                       # mshr miss rate for LoadLockedReq accesses
system.cpu.dcache.LoadLockedReq_mshr_miss_rate::total     0.750000                       # mshr miss rate for LoadLockedReq accesses
system.cpu.dcache.LoadLockedReq_avg_mshr_miss_latency::.switch_cpus.data 65166.666667                       # average LoadLockedReq mshr miss latency
system.cpu.dcache.LoadLockedReq_avg_mshr_miss_latency::total 65166.666667                       # average LoadLockedReq mshr miss latency
system.cpu.dcache.SwapReq_hits::.switch_cpus.data        71218                       # number of SwapReq hits
system.cpu.dcache.SwapReq_hits::total           71218                       # number of SwapReq hits
system.cpu.dcache.SwapReq_misses::.switch_cpus.data         1012                       # number of SwapReq misses
system.cpu.dcache.SwapReq_misses::total          1012                       # number of SwapReq misses
system.cpu.dcache.SwapReq_miss_latency::.switch_cpus.data     13924000                       # number of SwapReq miss cycles
system.cpu.dcache.SwapReq_miss_latency::total     13924000                       # number of SwapReq miss cycles
system.cpu.dcache.SwapReq_accesses::.switch_cpus.data        72230                       # number of SwapReq accesses(hits+misses)
system.cpu.dcache.SwapReq_accesses::total        72230                       # number of SwapReq accesses(hits+misses)
system.cpu.dcache.SwapReq_miss_rate::.switch_cpus.data     0.014011                       # miss rate for SwapReq accesses
system.cpu.dcache.SwapReq_miss_rate::total     0.014011                       # miss rate for SwapReq accesses
system.cpu.dcache.SwapReq_avg_miss_latency::.switch_cpus.data 13758.893281                       # average SwapReq miss latency
system.cpu.dcache.SwapReq_avg_miss_latency::total 13758.893281                       # average SwapReq miss latency
system.cpu.dcache.SwapReq_mshr_misses::.switch_cpus.data         1012                       # number of SwapReq MSHR misses
system.cpu.dcache.SwapReq_mshr_misses::total         1012                       # number of SwapReq MSHR misses
system.cpu.dcache.SwapReq_mshr_miss_latency::.switch_cpus.data     12912000                       # number of SwapReq MSHR miss cycles
system.cpu.dcache.SwapReq_mshr_miss_latency::total     12912000                       # number of SwapReq MSHR miss cycles
system.cpu.dcache.SwapReq_mshr_miss_rate::.switch_cpus.data     0.014011                       # mshr miss rate for SwapReq accesses
system.cpu.dcache.SwapReq_mshr_miss_rate::total     0.014011                       # mshr miss rate for SwapReq accesses
system.cpu.dcache.SwapReq_avg_mshr_miss_latency::.switch_cpus.data 12758.893281                       # average SwapReq mshr miss latency
system.cpu.dcache.SwapReq_avg_mshr_miss_latency::total 12758.893281                       # average SwapReq mshr miss latency
system.cpu.dcache.ghosttags.tagsinuse               0                       # Cycle average of tags in use
system.cpu.dcache.ghosttags.total_refs              0                       # Total number of references to valid blocks.
system.cpu.dcache.ghosttags.sampled_refs            0                       # Sample count of references to valid blocks.
system.cpu.dcache.ghosttags.avg_refs              nan                       # Average number of references to valid blocks.
system.cpu.dcache.ghosttags.warmup_cycle            0                       # Cycle when the warmup percentage was hit.
system.cpu.dcache.ghosttags.tag_accesses            0                       # Number of tag accesses
system.cpu.dcache.ghosttags.data_accesses            0                       # Number of data accesses
system.cpu.dcache.ghosttags.repl_invalid            0                       # Number of initial replacements
system.cpu.dcache.ghosttags.repl_valid_tag            0                       # Number of local replacements
system.cpu.dcache.ghosttags.repl_valid_data            0                       # Number of global replacements
system.cpu.dcache.ghosttags.power_state.pwrStateResidencyTicks::UNDEFINED 6797642548500                       # Cumulative time (in ticks) in various power states
system.cpu.dcache.power_state.pwrStateResidencyTicks::UNDEFINED 6797642548500                       # Cumulative time (in ticks) in various power states
system.cpu.dcache.tags.tagsinuse           511.986616                       # Cycle average of tags in use
system.cpu.dcache.tags.total_refs           829233300                       # Total number of references to valid blocks.
system.cpu.dcache.tags.sampled_refs          22588499                       # Sample count of references to valid blocks.
system.cpu.dcache.tags.avg_refs             36.710421                       # Average number of references to valid blocks.
system.cpu.dcache.tags.warmup_cycle      5961191543000                       # Cycle when the warmup percentage was hit.
system.cpu.dcache.tags.occ_blocks::.cpu.data     0.000267                       # Average occupied blocks per requestor
system.cpu.dcache.tags.occ_blocks::.switch_cpus.data   511.986349                       # Average occupied blocks per requestor
system.cpu.dcache.tags.occ_percent::.cpu.data     0.000001                       # Average percentage of cache occupancy
system.cpu.dcache.tags.occ_percent::.switch_cpus.data     0.999973                       # Average percentage of cache occupancy
system.cpu.dcache.tags.occ_percent::total     0.999974                       # Average percentage of cache occupancy
system.cpu.dcache.tags.occ_task_id_blocks::1024          512                       # Occupied blocks per task id
system.cpu.dcache.tags.age_task_id_blocks_1024::0           69                       # Occupied blocks per task id
system.cpu.dcache.tags.age_task_id_blocks_1024::1          323                       # Occupied blocks per task id
system.cpu.dcache.tags.age_task_id_blocks_1024::2          120                       # Occupied blocks per task id
system.cpu.dcache.tags.occ_task_id_percent::1024            1                       # Percentage of cache occupancy per task id
system.cpu.dcache.tags.tag_accesses        6872353307                       # Number of tag accesses
system.cpu.dcache.tags.data_accesses       6872353307                       # Number of data accesses
system.cpu.dcache.tags.repl_invalid                 0                       # Number of initial replacements
system.cpu.dcache.tags.repl_valid_tag               0                       # Number of local replacements
system.cpu.dcache.tags.repl_valid_data              0                       # Number of global replacements
system.cpu.dcache.tags.power_state.pwrStateResidencyTicks::UNDEFINED 6797642548500                       # Cumulative time (in ticks) in various power states
system.cpu.dtb.instHits                             0                       # ITB inst hits
system.cpu.dtb.instMisses                           0                       # ITB inst misses
system.cpu.dtb.readHits                             0                       # DTB read hits
system.cpu.dtb.readMisses                           0                       # DTB read misses
system.cpu.dtb.writeHits                            0                       # DTB write hits
system.cpu.dtb.writeMisses                          0                       # DTB write misses
system.cpu.dtb.inserts                              0                       # Number of times an entry is inserted into the TLB
system.cpu.dtb.flushTlb                             2                       # Number of times complete TLB was flushed
system.cpu.dtb.flushTlbMva                          0                       # Number of times TLB was flushed by MVA
system.cpu.dtb.flushTlbMvaAsid                      0                       # Number of times TLB was flushed by MVA & ASID
system.cpu.dtb.flushTlbAsid                         0                       # Number of times TLB was flushed by ASID
system.cpu.dtb.flushedEntries                       0                       # Number of entries that have been flushed from TLB
system.cpu.dtb.alignFaults                          0                       # Number of TLB faults due to alignment restrictions
system.cpu.dtb.prefetchFaults                       0                       # Number of TLB faults due to prefetch
system.cpu.dtb.domainFaults                         0                       # Number of TLB faults due to domain restrictions
system.cpu.dtb.permsFaults                          0                       # Number of TLB faults due to permissions restrictions
system.cpu.dtb.readAccesses                         0                       # DTB read accesses
system.cpu.dtb.writeAccesses                        0                       # DTB write accesses
system.cpu.dtb.instAccesses                         0                       # ITB inst accesses
system.cpu.dtb.hits                                 0                       # Total TLB (inst and data) hits
system.cpu.dtb.misses                               0                       # Total TLB (inst and data) misses
system.cpu.dtb.accesses                             0                       # Total TLB (inst and data) accesses
system.cpu.dtb.stage2_mmu.stage2_tlb.instHits            0                       # ITB inst hits
system.cpu.dtb.stage2_mmu.stage2_tlb.instMisses            0                       # ITB inst misses
system.cpu.dtb.stage2_mmu.stage2_tlb.readHits            0                       # DTB read hits
system.cpu.dtb.stage2_mmu.stage2_tlb.readMisses            0                       # DTB read misses
system.cpu.dtb.stage2_mmu.stage2_tlb.writeHits            0                       # DTB write hits
system.cpu.dtb.stage2_mmu.stage2_tlb.writeMisses            0                       # DTB write misses
system.cpu.dtb.stage2_mmu.stage2_tlb.inserts            0                       # Number of times an entry is inserted into the TLB
system.cpu.dtb.stage2_mmu.stage2_tlb.flushTlb            0                       # Number of times complete TLB was flushed
system.cpu.dtb.stage2_mmu.stage2_tlb.flushTlbMva            0                       # Number of times TLB was flushed by MVA
system.cpu.dtb.stage2_mmu.stage2_tlb.flushTlbMvaAsid            0                       # Number of times TLB was flushed by MVA & ASID
system.cpu.dtb.stage2_mmu.stage2_tlb.flushTlbAsid            0                       # Number of times TLB was flushed by ASID
system.cpu.dtb.stage2_mmu.stage2_tlb.flushedEntries            0                       # Number of entries that have been flushed from TLB
system.cpu.dtb.stage2_mmu.stage2_tlb.alignFaults            0                       # Number of TLB faults due to alignment restrictions
system.cpu.dtb.stage2_mmu.stage2_tlb.prefetchFaults            0                       # Number of TLB faults due to prefetch
system.cpu.dtb.stage2_mmu.stage2_tlb.domainFaults            0                       # Number of TLB faults due to domain restrictions
system.cpu.dtb.stage2_mmu.stage2_tlb.permsFaults            0                       # Number of TLB faults due to permissions restrictions
system.cpu.dtb.stage2_mmu.stage2_tlb.readAccesses            0                       # DTB read accesses
system.cpu.dtb.stage2_mmu.stage2_tlb.writeAccesses            0                       # DTB write accesses
system.cpu.dtb.stage2_mmu.stage2_tlb.instAccesses            0                       # ITB inst accesses
system.cpu.dtb.stage2_mmu.stage2_tlb.hits            0                       # Total TLB (inst and data) hits
system.cpu.dtb.stage2_mmu.stage2_tlb.misses            0                       # Total TLB (inst and data) misses
system.cpu.dtb.stage2_mmu.stage2_tlb.accesses            0                       # Total TLB (inst and data) accesses
system.cpu.dtb.stage2_mmu.stage2_tlb.walker.walks            0                       # Table walker walks requested
system.cpu.dtb.stage2_mmu.stage2_tlb.walker.requestOrigin_Requested::Data            0                       # Table walker requests started/completed, data/inst
system.cpu.dtb.stage2_mmu.stage2_tlb.walker.requestOrigin_Requested::Inst            0                       # Table walker requests started/completed, data/inst
system.cpu.dtb.stage2_mmu.stage2_tlb.walker.requestOrigin_Requested::total            0                       # Table walker requests started/completed, data/inst
system.cpu.dtb.stage2_mmu.stage2_tlb.walker.requestOrigin_Completed::Data            0                       # Table walker requests started/completed, data/inst
system.cpu.dtb.stage2_mmu.stage2_tlb.walker.requestOrigin_Completed::Inst            0                       # Table walker requests started/completed, data/inst
system.cpu.dtb.stage2_mmu.stage2_tlb.walker.requestOrigin_Completed::total            0                       # Table walker requests started/completed, data/inst
system.cpu.dtb.stage2_mmu.stage2_tlb.walker.requestOrigin::total            0                       # Table walker requests started/completed, data/inst
system.cpu.dtb.stage2_mmu.stage2_tlb.walker.power_state.pwrStateResidencyTicks::UNDEFINED 6797642548500                       # Cumulative time (in ticks) in various power states
system.cpu.dtb.walker.walks                         0                       # Table walker walks requested
system.cpu.dtb.walker.requestOrigin_Requested::Data            0                       # Table walker requests started/completed, data/inst
system.cpu.dtb.walker.requestOrigin_Requested::Inst            0                       # Table walker requests started/completed, data/inst
system.cpu.dtb.walker.requestOrigin_Requested::total            0                       # Table walker requests started/completed, data/inst
system.cpu.dtb.walker.requestOrigin_Completed::Data            0                       # Table walker requests started/completed, data/inst
system.cpu.dtb.walker.requestOrigin_Completed::Inst            0                       # Table walker requests started/completed, data/inst
system.cpu.dtb.walker.requestOrigin_Completed::total            0                       # Table walker requests started/completed, data/inst
system.cpu.dtb.walker.requestOrigin::total            0                       # Table walker requests started/completed, data/inst
system.cpu.dtb.walker.power_state.pwrStateResidencyTicks::UNDEFINED 6797642548500                       # Cumulative time (in ticks) in various power states
system.cpu.icache.demand_hits::.cpu.inst           13                       # number of demand (read+write) hits
system.cpu.icache.demand_hits::.switch_cpus.inst    380475429                       # number of demand (read+write) hits
system.cpu.icache.demand_hits::total        380475442                       # number of demand (read+write) hits
system.cpu.icache.overall_hits::.cpu.inst           13                       # number of overall hits
system.cpu.icache.overall_hits::.switch_cpus.inst    380475429                       # number of overall hits
system.cpu.icache.overall_hits::total       380475442                       # number of overall hits
system.cpu.icache.demand_misses::.cpu.inst            4                       # number of demand (read+write) misses
system.cpu.icache.demand_misses::.switch_cpus.inst     16805068                       # number of demand (read+write) misses
system.cpu.icache.demand_misses::total       16805072                       # number of demand (read+write) misses
system.cpu.icache.overall_misses::.cpu.inst            4                       # number of overall misses
system.cpu.icache.overall_misses::.switch_cpus.inst     16805068                       # number of overall misses
system.cpu.icache.overall_misses::total      16805072                       # number of overall misses
system.cpu.icache.demand_miss_latency::.switch_cpus.inst 216307670972                       # number of demand (read+write) miss cycles
system.cpu.icache.demand_miss_latency::total 216307670972                       # number of demand (read+write) miss cycles
system.cpu.icache.overall_miss_latency::.switch_cpus.inst 216307670972                       # number of overall miss cycles
system.cpu.icache.overall_miss_latency::total 216307670972                       # number of overall miss cycles
system.cpu.icache.demand_accesses::.cpu.inst           17                       # number of demand (read+write) accesses
system.cpu.icache.demand_accesses::.switch_cpus.inst    397280497                       # number of demand (read+write) accesses
system.cpu.icache.demand_accesses::total    397280514                       # number of demand (read+write) accesses
system.cpu.icache.overall_accesses::.cpu.inst           17                       # number of overall (read+write) accesses
system.cpu.icache.overall_accesses::.switch_cpus.inst    397280497                       # number of overall (read+write) accesses
system.cpu.icache.overall_accesses::total    397280514                       # number of overall (read+write) accesses
system.cpu.icache.demand_miss_rate::.cpu.inst     0.235294                       # miss rate for demand accesses
system.cpu.icache.demand_miss_rate::.switch_cpus.inst     0.042300                       # miss rate for demand accesses
system.cpu.icache.demand_miss_rate::total     0.042300                       # miss rate for demand accesses
system.cpu.icache.overall_miss_rate::.cpu.inst     0.235294                       # miss rate for overall accesses
system.cpu.icache.overall_miss_rate::.switch_cpus.inst     0.042300                       # miss rate for overall accesses
system.cpu.icache.overall_miss_rate::total     0.042300                       # miss rate for overall accesses
system.cpu.icache.demand_avg_miss_latency::.switch_cpus.inst 12871.573681                       # average overall miss latency
system.cpu.icache.demand_avg_miss_latency::total 12871.570617                       # average overall miss latency
system.cpu.icache.overall_avg_miss_latency::.switch_cpus.inst 12871.573681                       # average overall miss latency
system.cpu.icache.overall_avg_miss_latency::total 12871.570617                       # average overall miss latency
system.cpu.icache.blocked_cycles::no_mshrs        26885                       # number of cycles access was blocked
system.cpu.icache.blocked_cycles::no_targets            0                       # number of cycles access was blocked
system.cpu.icache.blocked::no_mshrs              2722                       # number of cycles access was blocked
system.cpu.icache.blocked::no_targets               0                       # number of cycles access was blocked
system.cpu.icache.avg_blocked_cycles::no_mshrs     9.876929                       # average number of cycles each access was blocked
system.cpu.icache.avg_blocked_cycles::no_targets          nan                       # average number of cycles each access was blocked
system.cpu.icache.ghost_timestamp_misses            0                       # number of times timestamp policy causes a block to be inaccessible
system.cpu.icache.ghost_commits                     0                       # number of cache lines moved from ghost to main
system.cpu.icache.same_leapfrogs                    0                       # number of times leapfrogging occurs with a shared MSHR request
system.cpu.icache.writebacks::.writebacks     15868385                       # number of writebacks
system.cpu.icache.writebacks::total          15868385                       # number of writebacks
system.cpu.icache.demand_mshr_hits::.switch_cpus.inst       933873                       # number of demand (read+write) MSHR hits
system.cpu.icache.demand_mshr_hits::total       933873                       # number of demand (read+write) MSHR hits
system.cpu.icache.overall_mshr_hits::.switch_cpus.inst       933873                       # number of overall MSHR hits
system.cpu.icache.overall_mshr_hits::total       933873                       # number of overall MSHR hits
system.cpu.icache.demand_mshr_misses::.switch_cpus.inst     15871195                       # number of demand (read+write) MSHR misses
system.cpu.icache.demand_mshr_misses::total     15871195                       # number of demand (read+write) MSHR misses
system.cpu.icache.overall_mshr_misses::.switch_cpus.inst     15871195                       # number of overall MSHR misses
system.cpu.icache.overall_mshr_misses::total     15871195                       # number of overall MSHR misses
system.cpu.icache.demand_mshr_miss_latency::.switch_cpus.inst 194377981974                       # number of demand (read+write) MSHR miss cycles
system.cpu.icache.demand_mshr_miss_latency::total 194377981974                       # number of demand (read+write) MSHR miss cycles
system.cpu.icache.overall_mshr_miss_latency::.switch_cpus.inst 194377981974                       # number of overall MSHR miss cycles
system.cpu.icache.overall_mshr_miss_latency::total 194377981974                       # number of overall MSHR miss cycles
system.cpu.icache.demand_mshr_miss_rate::.switch_cpus.inst     0.039950                       # mshr miss rate for demand accesses
system.cpu.icache.demand_mshr_miss_rate::total     0.039950                       # mshr miss rate for demand accesses
system.cpu.icache.overall_mshr_miss_rate::.switch_cpus.inst     0.039950                       # mshr miss rate for overall accesses
[...]
system.switch_cpus.fetch.pendingTrapStallCycles        14126                       # Number of stall cycles due to pending traps
system.switch_cpus.fetch.icacheWaitRetryStallCycles         1273                       # Number of stall cycles due to full MSHR
system.switch_cpus.fetch.cacheLines         397280512                       # Number of cache lines fetched
system.switch_cpus.fetch.icacheSquashes       9459575                       # Number of outstanding Icache misses that were squashed
system.switch_cpus.fetch.nisnDist::samples   1632535568                       # Number of instructions fetched each cycle (Total)
system.switch_cpus.fetch.nisnDist::mean      1.823404                       # Number of instructions fetched each cycle (Total)
system.switch_cpus.fetch.nisnDist::stdev     2.883562                       # Number of instructions fetched each cycle (Total)
system.switch_cpus.fetch.nisnDist::underflows            0      0.00%      0.00% # Number of instructions fetched each cycle (Total)
system.switch_cpus.fetch.nisnDist::0       1034674174     63.38%     63.38% # Number of instructions fetched each cycle (Total)
system.switch_cpus.fetch.nisnDist::1         67970716      4.16%     67.54% # Number of instructions fetched each cycle (Total)
system.switch_cpus.fetch.nisnDist::2         86977901      5.33%     72.87% # Number of instructions fetched each cycle (Total)
system.switch_cpus.fetch.nisnDist::3         66793497      4.09%     76.96% # Number of instructions fetched each cycle (Total)
system.switch_cpus.fetch.nisnDist::4         53919494      3.30%     80.26% # Number of instructions fetched each cycle (Total)
system.switch_cpus.fetch.nisnDist::5         51642024      3.16%     83.43% # Number of instructions fetched each cycle (Total)
system.switch_cpus.fetch.nisnDist::6         37040729      2.27%     85.70% # Number of instructions fetched each cycle (Total)
system.switch_cpus.fetch.nisnDist::7         29804463      1.83%     87.52% # Number of instructions fetched each cycle (Total)
system.switch_cpus.fetch.nisnDist::8        203712570     12.48%    100.00% # Number of instructions fetched each cycle (Total)
system.switch_cpus.fetch.nisnDist::overflows            0      0.00%    100.00% # Number of instructions fetched each cycle (Total)
system.switch_cpus.fetch.nisnDist::min_value            0                       # Number of instructions fetched each cycle (Total)
system.switch_cpus.fetch.nisnDist::max_value            8                       # Number of instructions fetched each cycle (Total)
system.switch_cpus.fetch.nisnDist::total   1632535568                       # Number of instructions fetched each cycle (Total)
system.switch_cpus.fetch.branchRate          0.326032                       # Number of branch fetches per cycle
system.switch_cpus.fetch.rate                1.523640                       # Number of inst fetches per cycle
system.switch_cpus.itb.instHits                     0                       # ITB inst hits
system.switch_cpus.itb.instMisses                   0                       # ITB inst misses
system.switch_cpus.itb.readHits                     0                       # DTB read hits
system.switch_cpus.itb.readMisses                   0                       # DTB read misses
system.switch_cpus.itb.writeHits                    0                       # DTB write hits
system.switch_cpus.itb.writeMisses                  0                       # DTB write misses
system.switch_cpus.itb.inserts                      0                       # Number of times an entry is inserted into the TLB
system.switch_cpus.itb.flushTlb                     0                       # Number of times complete TLB was flushed
system.switch_cpus.itb.flushTlbMva                  0                       # Number of times TLB was flushed by MVA
system.switch_cpus.itb.flushTlbMvaAsid              0                       # Number of times TLB was flushed by MVA & ASID
system.switch_cpus.itb.flushTlbAsid                 0                       # Number of times TLB was flushed by ASID
system.switch_cpus.itb.flushedEntries               0                       # Number of entries that have been flushed from TLB
system.switch_cpus.itb.alignFaults                  0                       # Number of TLB faults due to alignment restrictions
system.switch_cpus.itb.prefetchFaults               0                       # Number of TLB faults due to prefetch
system.switch_cpus.itb.domainFaults                 0                       # Number of TLB faults due to domain restrictions
system.switch_cpus.itb.permsFaults                  0                       # Number of TLB faults due to permissions restrictions
system.switch_cpus.itb.readAccesses                 0                       # DTB read accesses
system.switch_cpus.itb.writeAccesses                0                       # DTB write accesses
system.switch_cpus.itb.instAccesses                 0                       # ITB inst accesses
system.switch_cpus.itb.hits                         0                       # Total TLB (inst and data) hits
system.switch_cpus.itb.misses                       0                       # Total TLB (inst and data) misses
system.switch_cpus.itb.accesses                     0                       # Total TLB (inst and data) accesses
system.switch_cpus.itb.stage2_mmu.stage2_tlb.instHits            0                       # ITB inst hits
system.switch_cpus.itb.stage2_mmu.stage2_tlb.instMisses            0                       # ITB inst misses
system.switch_cpus.itb.stage2_mmu.stage2_tlb.readHits            0                       # DTB read hits
system.switch_cpus.itb.stage2_mmu.stage2_tlb.readMisses            0                       # DTB read misses
system.switch_cpus.itb.stage2_mmu.stage2_tlb.writeHits            0                       # DTB write hits
system.switch_cpus.itb.stage2_mmu.stage2_tlb.writeMisses            0                       # DTB write misses
system.switch_cpus.itb.stage2_mmu.stage2_tlb.inserts            0                       # Number of times an entry is inserted into the TLB
system.switch_cpus.itb.stage2_mmu.stage2_tlb.flushTlb            0                       # Number of times complete TLB was flushed
system.switch_cpus.itb.stage2_mmu.stage2_tlb.flushTlbMva            0                       # Number of times TLB was flushed by MVA
system.switch_cpus.itb.stage2_mmu.stage2_tlb.flushTlbMvaAsid            0                       # Number of times TLB was flushed by MVA & ASID
system.switch_cpus.itb.stage2_mmu.stage2_tlb.flushTlbAsid            0                       # Number of times TLB was flushed by ASID
system.switch_cpus.itb.stage2_mmu.stage2_tlb.flushedEntries            0                       # Number of entries that have been flushed from TLB
system.switch_cpus.itb.stage2_mmu.stage2_tlb.alignFaults            0                       # Number of TLB faults due to alignment restrictions
system.switch_cpus.itb.stage2_mmu.stage2_tlb.prefetchFaults            0                       # Number of TLB faults due to prefetch
system.switch_cpus.itb.stage2_mmu.stage2_tlb.domainFaults            0                       # Number of TLB faults due to domain restrictions
system.switch_cpus.itb.stage2_mmu.stage2_tlb.permsFaults            0                       # Number of TLB faults due to permissions restrictions
system.switch_cpus.itb.stage2_mmu.stage2_tlb.readAccesses            0                       # DTB read accesses
system.switch_cpus.itb.stage2_mmu.stage2_tlb.writeAccesses            0                       # DTB write accesses
system.switch_cpus.itb.stage2_mmu.stage2_tlb.instAccesses            0                       # ITB inst accesses
system.switch_cpus.itb.stage2_mmu.stage2_tlb.hits            0                       # Total TLB (inst and data) hits
system.switch_cpus.itb.stage2_mmu.stage2_tlb.misses            0                       # Total TLB (inst and data) misses
system.switch_cpus.itb.stage2_mmu.stage2_tlb.accesses            0                       # Total TLB (inst and data) accesses
system.switch_cpus.itb.stage2_mmu.stage2_tlb.walker.walks            0                       # Table walker walks requested
system.switch_cpus.itb.stage2_mmu.stage2_tlb.walker.requestOrigin_Requested::Data            0                       # Table walker requests started/completed, data/inst
system.switch_cpus.itb.stage2_mmu.stage2_tlb.walker.requestOrigin_Requested::Inst            0                       # Table walker requests started/completed, data/inst
system.switch_cpus.itb.stage2_mmu.stage2_tlb.walker.requestOrigin_Requested::total            0                       # Table walker requests started/completed, data/inst
system.switch_cpus.itb.stage2_mmu.stage2_tlb.walker.requestOrigin_Completed::Data            0                       # Table walker requests started/completed, data/inst
system.switch_cpus.itb.stage2_mmu.stage2_tlb.walker.requestOrigin_Completed::Inst            0                       # Table walker requests started/completed, data/inst
system.switch_cpus.itb.stage2_mmu.stage2_tlb.walker.requestOrigin_Completed::total            0                       # Table walker requests started/completed, data/inst
system.switch_cpus.itb.stage2_mmu.stage2_tlb.walker.requestOrigin::total            0                       # Table walker requests started/completed, data/inst
system.switch_cpus.itb.stage2_mmu.stage2_tlb.walker.power_state.pwrStateResidencyTicks::UNDEFINED 6797642548500                       # Cumulative time (in ticks) in various power states
system.switch_cpus.itb.walker.walks                 0                       # Table walker walks requested
system.switch_cpus.itb.walker.requestOrigin_Requested::Data            0                       # Table walker requests started/completed, data/inst
system.switch_cpus.itb.walker.requestOrigin_Requested::Inst            0                       # Table walker requests started/completed, data/inst
system.switch_cpus.itb.walker.requestOrigin_Requested::total            0                       # Table walker requests started/completed, data/inst
system.switch_cpus.itb.walker.requestOrigin_Completed::Data            0                       # Table walker requests started/completed, data/inst
system.switch_cpus.itb.walker.requestOrigin_Completed::Inst            0                       # Table walker requests started/completed, data/inst
system.switch_cpus.itb.walker.requestOrigin_Completed::total            0                       # Table walker requests started/completed, data/inst
system.switch_cpus.itb.walker.requestOrigin::total            0                       # Table walker requests started/completed, data/inst
system.switch_cpus.itb.walker.power_state.pwrStateResidencyTicks::UNDEFINED 6797642548500                       # Cumulative time (in ticks) in various power states
system.switch_cpus.lsq0.forwLoads            32328105                       # Number of loads that had data forwarded from stores
system.switch_cpus.lsq0.squashedLoads        93708150                       # Number of loads squashed
system.switch_cpus.lsq0.ignoredResponses       214229                       # Number of memory responses ignored because the instruction is squashed
system.switch_cpus.lsq0.memOrderViolation       349363                       # Number of memory ordering violations
system.switch_cpus.lsq0.squashedStores       54392786                       # Number of stores squashed
system.switch_cpus.lsq0.rescheduledLoads     36477256                       # Number of loads that were rescheduled
system.switch_cpus.lsq0.blockedByCache        1483770                       # Number of times an access to memory failed due to the cache being blocked
system.switch_cpus.power_state.pwrStateResidencyTicks::OFF 836451006500                       # Cumulative time (in ticks) in various power states
system.switch_cpus.rename.squashCycles       16073961                       # Number of cycles rename is squashing
system.switch_cpus.rename.idleCycles        637313388                       # Number of cycles rename is idle
system.switch_cpus.rename.blockCycles       215490302                       # Number of cycles rename is blocking
system.switch_cpus.rename.serializeStallCycles     27823150                       # count of cycles rename stalledfor serializing inst
system.switch_cpus.rename.runCycles         522143144                       # Number of cycles rename is running
system.switch_cpus.rename.unblockCycles     213691604                       # Number of cycles rename is unblocking
system.switch_cpus.rename.renamedInsts     2829744165                       # Number of instructions processed by rename
system.switch_cpus.rename.ROBFullEvents       1052931                       # Number of times rename has blocked due to ROB full
system.switch_cpus.rename.IQFullEvents       27932660                       # Number of times rename has blocked due to IQ full
system.switch_cpus.rename.LQFullEvents      104552078                       # Number of times rename has blocked due to LQ full
system.switch_cpus.rename.SQFullEvents       83918328                       # Number of times rename has blocked due to SQ full
system.switch_cpus.rename.renamedOperands   2827294486                       # Number of destination operands rename has renamed
system.switch_cpus.rename.lookups          4075267934                       # Number of register rename lookups that rename has made
system.switch_cpus.rename.intLookups       3180228593                       # Number of integer rename lookups
system.switch_cpus.rename.vecLookups         32592790                       # Number of vector rename lookups
system.switch_cpus.rename.vecPredLookups       196488                       # Number of vector predicate rename lookups
system.switch_cpus.rename.committedMaps    2357320377                       # Number of HB maps that are committed
system.switch_cpus.rename.undoneMaps        469974065                       # Number of HB maps that are undone due to squashing
system.switch_cpus.rename.serializing         1273720                       # count of serializing insts renamed
system.switch_cpus.rename.tempSerializing         9146                       # count of temporary serializing insts renamed
system.switch_cpus.rename.skidInsts         133434681                       # count of insts added to the skid buffer
system.switch_cpus.rob.reads               4160107024                       # The number of ROB reads
system.switch_cpus.rob.writes              5573691661                       # The number of ROB writes
system.switch_cpus.thread0.numInsts        2000000002                       # Number of Instructions committed
system.switch_cpus.thread0.numOps          2342881176                       # Number of Ops committed
system.switch_cpus.thread0.numMemRefs               0                       # Number of Memory References
system.tol2bus.trans_dist::ReadResp          35053509                       # Transaction distribution
system.tol2bus.trans_dist::WritebackDirty     20746442                       # Transaction distribution
system.tol2bus.trans_dist::WritebackClean     20190643                       # Transaction distribution
system.tol2bus.trans_dist::CleanEvict          845528                       # Transaction distribution
system.tol2bus.trans_dist::HardPFReq          1026737                       # Transaction distribution
system.tol2bus.trans_dist::HardPFResp               3                       # Transaction distribution
system.tol2bus.trans_dist::UpgradeReq            2331                       # Transaction distribution
system.tol2bus.trans_dist::UpgradeResp           2331                       # Transaction distribution
system.tol2bus.trans_dist::ReadExReq          2457326                       # Transaction distribution
system.tol2bus.trans_dist::ReadExResp         2457326                       # Transaction distribution
system.tol2bus.trans_dist::ReadCleanReq      15871199                       # Transaction distribution
system.tol2bus.trans_dist::ReadSharedReq     19182310                       # Transaction distribution
system.tol2bus.trans_dist::InvalidateReq       948874                       # Transaction distribution
system.tol2bus.trans_dist::InvalidateResp       948874                       # Transaction distribution
system.tol2bus.pkt_count_system.cpu.icache.mem_side_port::system.l2.cpu_side_port     47608092                       # Packet count per connected requestor and responder (bytes)
system.tol2bus.pkt_count_system.cpu.dcache.mem_side_port::system.l2.cpu_side_port     67769672                       # Packet count per connected requestor and responder (bytes)
system.tol2bus.pkt_count::total             115377764                       # Packet count per connected requestor and responder (bytes)
system.tol2bus.pkt_size_system.cpu.icache.mem_side_port::system.l2.cpu_side_port   2031161152                       # Cumulative packet size per connected requestor and responder (bytes)
system.tol2bus.pkt_size_system.cpu.dcache.mem_side_port::system.l2.cpu_side_port   2830568064                       # Cumulative packet size per connected requestor and responder (bytes)
system.tol2bus.pkt_size::total             4861729216                       # Cumulative packet size per connected requestor and responder (bytes)
system.tol2bus.snoops                         4355672                       # Total snoops (count)
system.tol2bus.snoopTraffic                 158938048                       # Total snoop traffic (bytes)
system.tol2bus.snoop_fanout::samples         42815018                       # Request fanout histogram
system.tol2bus.snoop_fanout::mean            0.006424                       # Request fanout histogram
system.tol2bus.snoop_fanout::stdev           0.079896                       # Request fanout histogram
system.tol2bus.snoop_fanout::underflows             0      0.00%      0.00% # Request fanout histogram
system.tol2bus.snoop_fanout::0               42539983     99.36%     99.36% # Request fanout histogram
system.tol2bus.snoop_fanout::1                 275023      0.64%    100.00% # Request fanout histogram
system.tol2bus.snoop_fanout::2                     12      0.00%    100.00% # Request fanout histogram
system.tol2bus.snoop_fanout::overflows              0      0.00%    100.00% # Request fanout histogram
system.tol2bus.snoop_fanout::min_value              0                       # Request fanout histogram
system.tol2bus.snoop_fanout::max_value              2                       # Request fanout histogram
system.tol2bus.snoop_fanout::total           42815018                       # Request fanout histogram
system.tol2bus.power_state.pwrStateResidencyTicks::UNDEFINED 6797642548500                       # Cumulative time (in ticks) in various power states
system.tol2bus.reqLayer0.occupancy        76915580995                       # Layer occupancy (ticks)
system.tol2bus.reqLayer0.utilization              9.2                       # Layer utilization (%)
system.tol2bus.respLayer0.occupancy       23817832875                       # Layer occupancy (ticks)
system.tol2bus.respLayer0.utilization             2.8                       # Layer utilization (%)
system.tol2bus.respLayer1.occupancy       32940614353                       # Layer occupancy (ticks)
system.tol2bus.respLayer1.utilization             3.9                       # Layer utilization (%)
system.tol2bus.snoopLayer0.occupancy             4511                       # Layer occupancy (ticks)
system.tol2bus.snoopLayer0.utilization            0.0                       # Layer utilization (%)
system.voltage_domain.voltage                       1                       # Voltage in Volts

---------- End Simulation Statistics   ----------
