
---------- Begin Simulation Statistics ----------
final_tick                               6143756485500                       # Number of ticks from beginning of simulation (restored from checkpoints and never reset)
host_inst_rate                                 353064                       # Simulator instruction rate (inst/s)
host_mem_usage                               16990544                       # Number of bytes of host memory used
host_op_rate                                   385417                       # Simulator op (including micro ops) rate (op/s)
host_seconds                                  5664.69                       # Real time elapsed on the host
host_tick_rate                              105079038                       # Simulator tick rate (ticks/s)
sim_freq                                 1000000000000                       # Frequency of simulated ticks
sim_insts                                  2000000024                       # Number of instructions simulated
sim_ops                                    2183267854                       # Number of ops (including micro ops) simulated
sim_seconds                                  0.595240                       # Number of seconds simulated
sim_ticks                                595239967500                       # Number of ticks simulated
system.cpu.Branches                                 2                       # Number of branches fetched
system.cpu.committedInsts                          20                       # Number of instructions committed
system.cpu.committedOps                            20                       # Number of ops (including micro ops) committed
system.cpu.dcache.MSHRs.leapFrogMisses          30341                       # number of false blocks from MSHR
system.cpu.icache.MSHRs.leapFrogMisses              0                       # number of false blocks from MSHR
system.cpu.idle_fraction                            0                       # Percentage of idle cycles
system.cpu.not_idle_fraction                        1                       # Percentage of non-idle cycles
system.cpu.numCycles                               20                       # number of cpu cycles simulated
system.cpu.numWorkItemsCompleted                    0                       # number of work items this cpu completed
system.cpu.numWorkItemsStarted                      0                       # number of work items this cpu started
system.cpu.num_busy_cycles                         20                       # Number of busy cycles
system.cpu.num_cc_register_reads                    6                       # number of times the CC registers were read
system.cpu.num_cc_register_writes                   7                       # number of times the CC registers were written
system.cpu.num_conditional_control_insts            2                       # number of instructions that are conditional controls
system.cpu.num_fp_alu_accesses                      0                       # Number of float alu accesses
system.cpu.num_fp_insts                             0                       # number of float instructions
system.cpu.num_fp_register_reads                    0                       # number of times the floating registers were read
system.cpu.num_fp_register_writes                   0                       # number of times the floating registers were written
system.cpu.num_func_calls                           0                       # number of times a function call or return occured
system.cpu.num_idle_cycles                          0                       # Number of idle cycles
system.cpu.num_int_alu_accesses                     9                       # Number of integer alu accesses
system.cpu.num_int_insts                            9                       # number of integer instructions
system.cpu.num_int_register_reads                  51                       # number of times the integer registers were read
system.cpu.num_int_register_writes                 12                       # number of times the integer registers were written
system.cpu.num_load_insts                           7                       # Number of load instructions
system.cpu.num_mem_refs                             7                       # number of memory refs
system.cpu.num_store_insts                          0                       # Number of store instructions
system.cpu.num_vec_alu_accesses                    15                       # Number of vector alu accesses
system.cpu.num_vec_insts                           15                       # number of vector instructions
system.cpu.num_vec_register_reads                  18                       # number of times the vector registers were read
system.cpu.num_vec_register_writes                 14                       # number of times the vector registers were written
system.cpu.op_class::No_OpClass                     0      0.00%      0.00% # Class of executed instruction
system.cpu.op_class::IntAlu                         4     20.00%     20.00% # Class of executed instruction
system.cpu.op_class::IntMult                        0      0.00%     20.00% # Class of executed instruction
system.cpu.op_class::IntDiv                         0      0.00%     20.00% # Class of executed instruction
system.cpu.op_class::FloatAdd                       5     25.00%     45.00% # Class of executed instruction
system.cpu.op_class::FloatCmp                       1      5.00%     50.00% # Class of executed instruction
system.cpu.op_class::FloatCvt                       0      0.00%     50.00% # Class of executed instruction
system.cpu.op_class::FloatMult                      3     15.00%     65.00% # Class of executed instruction
system.cpu.op_class::FloatMultAcc                   0      0.00%     65.00% # Class of executed instruction
system.cpu.op_class::FloatDiv                       0      0.00%     65.00% # Class of executed instruction
system.cpu.op_class::FloatMisc                      0      0.00%     65.00% # Class of executed instruction
system.cpu.op_class::FloatSqrt                      0      0.00%     65.00% # Class of executed instruction
system.cpu.op_class::SimdAdd                        0      0.00%     65.00% # Class of executed instruction
system.cpu.op_class::SimdAddAcc                     0      0.00%     65.00% # Class of executed instruction
system.cpu.op_class::SimdAlu                        0      0.00%     65.00% # Class of executed instruction
system.cpu.op_class::SimdCmp                        0      0.00%     65.00% # Class of executed instruction
system.cpu.op_class::SimdCvt                        0      0.00%     65.00% # Class of executed instruction
system.cpu.op_class::SimdMisc                       0      0.00%     65.00% # Class of executed instruction
system.cpu.op_class::SimdMult                       0      0.00%     65.00% # Class of executed instruction
system.cpu.op_class::SimdMultAcc                    0      0.00%     65.00% # Class of executed instruction
system.cpu.op_class::SimdShift                      0      0.00%     65.00% # Class of executed instruction
system.cpu.op_class::SimdShiftAcc                   0      0.00%     65.00% # Class of executed instruction
system.cpu.op_class::SimdDiv                        0      0.00%     65.00% # Class of executed instruction
system.cpu.op_class::SimdSqrt                       0      0.00%     65.00% # Class of executed instruction
system.cpu.op_class::SimdFloatAdd                   0      0.00%     65.00% # Class of executed instruction
system.cpu.op_class::SimdFloatAlu                   0      0.00%     65.00% # Class of executed instruction
system.cpu.op_class::SimdFloatCmp                   0      0.00%     65.00% # Class of executed instruction
system.cpu.op_class::SimdFloatCvt                   0      0.00%     65.00% # Class of executed instruction
system.cpu.op_class::SimdFloatDiv                   0      0.00%     65.00% # Class of executed instruction
system.cpu.op_class::SimdFloatMisc                  0      0.00%     65.00% # Class of executed instruction
system.cpu.op_class::SimdFloatMult                  0      0.00%     65.00% # Class of executed instruction
system.cpu.op_class::SimdFloatMultAcc               0      0.00%     65.00% # Class of executed instruction
system.cpu.op_class::SimdFloatSqrt                  0      0.00%     65.00% # Class of executed instruction
system.cpu.op_class::SimdReduceAdd                  0      0.00%     65.00% # Class of executed instruction
system.cpu.op_class::SimdReduceAlu                  0      0.00%     65.00% # Class of executed instruction
system.cpu.op_class::SimdReduceCmp                  0      0.00%     65.00% # Class of executed instruction
system.cpu.op_class::SimdFloatReduceAdd             0      0.00%     65.00% # Class of executed instruction
system.cpu.op_class::SimdFloatReduceCmp             0      0.00%     65.00% # Class of executed instruction
system.cpu.op_class::SimdAes                        0      0.00%     65.00% # Class of executed instruction
system.cpu.op_class::SimdAesMix                     0      0.00%     65.00% # Class of executed instruction
system.cpu.op_class::SimdSha1Hash                   0      0.00%     65.00% # Class of executed instruction
system.cpu.op_class::SimdSha1Hash2                  0      0.00%     65.00% # Class of executed instruction
system.cpu.op_class::SimdSha256Hash                 0      0.00%     65.00% # Class of executed instruction
system.cpu.op_class::SimdSha256Hash2                0      0.00%     65.00% # Class of executed instruction
system.cpu.op_class::SimdShaSigma2                  0      0.00%     65.00% # Class of executed instruction
system.cpu.op_class::SimdShaSigma3                  0      0.00%     65.00% # Class of executed instruction
system.cpu.op_class::SimdPredAlu                    0      0.00%     65.00% # Class of executed instruction
system.cpu.op_class::MemRead                        7     35.00%    100.00% # Class of executed instruction
system.cpu.op_class::MemWrite                       0      0.00%    100.00% # Class of executed instruction
system.cpu.op_class::FloatMemRead                   0      0.00%    100.00% # Class of executed instruction
system.cpu.op_class::FloatMemWrite                  0      0.00%    100.00% # Class of executed instruction
system.cpu.op_class::IprAccess                      0      0.00%    100.00% # Class of executed instruction
system.cpu.op_class::InstPrefetch                   0      0.00%    100.00% # Class of executed instruction
system.cpu.op_class::total                         20                       # Class of executed instruction
system.cpu.workload.numSyscalls                    36                       # Number of system calls
system.l2.MSHRs.leapFrogMisses                      0                       # number of false blocks from MSHR
system.membus.snoop_filter.hit_multi_requests            0                       # Number of requests hitting in the snoop filter with multiple (>1) holders of the requested data.
system.membus.snoop_filter.hit_multi_snoops            0                       # Number of snoops hitting in the snoop filter with multiple (>1) holders of the requested data.
system.membus.snoop_filter.hit_single_requests       196795                       # Number of requests hitting in the snoop filter with a single holder of the requested data.
system.membus.snoop_filter.hit_single_snoops            0                       # Number of snoops hitting in the snoop filter with a single holder of the requested data.
system.membus.snoop_filter.tot_requests        524814                       # Total number of requests made to the snoop filter.
system.membus.snoop_filter.tot_snoops               0                       # Total number of snoops made to the snoop filter.
system.switch_cpus.cc_regfile_reads         858245229                       # number of cc regfile reads
system.switch_cpus.cc_regfile_writes        898105897                       # number of cc regfile writes
system.switch_cpus.committedInsts          2000000004                       # Number of Instructions Simulated
system.switch_cpus.committedOps            2183267834                       # Number of Ops (including micro ops) Simulated
system.switch_cpus.cpi                       0.595240                       # CPI: Cycles Per Instruction
system.switch_cpus.cpi_total                 0.595240                       # CPI: Total CPI of All Threads
system.switch_cpus.idleCycles                   11766                       # Total number of cycles that the CPU has spent unscheduled due to idling
system.switch_cpus.iew.branchMispredicts     30910929                       # Number of branch mispredicts detected at execute
system.switch_cpus.iew.exec_branches        418324128                       # Number of branches executed
system.switch_cpus.iew.exec_nop                  4627                       # number of nop insts executed
system.switch_cpus.iew.exec_rate             2.346982                       # Inst execution rate
system.switch_cpus.iew.exec_refs            829160544                       # number of memory reference insts executed
system.switch_cpus.iew.exec_stores          273932466                       # Number of stores executed
system.switch_cpus.iew.exec_swp                     0                       # number of swp insts executed
system.switch_cpus.iew.iewBlockCycles        88527471                       # Number of cycles IEW is blocking
system.switch_cpus.iew.iewDispLoadInsts     562667048                       # Number of dispatched load instructions
system.switch_cpus.iew.iewDispNonSpecInsts           82                       # Number of dispatched non-speculative instructions
system.switch_cpus.iew.iewDispSquashedInsts      3607065                       # Number of squashed instructions skipped by dispatch
system.switch_cpus.iew.iewDispStoreInsts    280306426                       # Number of dispatched store instructions
system.switch_cpus.iew.iewDispatchedInsts   2983534202                       # Number of instructions dispatched to IQ
system.switch_cpus.iew.iewExecLoadInsts     555228078                       # Number of load instructions executed
system.switch_cpus.iew.iewExecSquashedInsts     53376288                       # Number of squashed instructions skipped in execute
system.switch_cpus.iew.iewExecutedInsts    2794035208                       # Number of executed instructions
system.switch_cpus.iew.iewIQFullEvents         390718                       # Number of times the IQ has become full, causing a stall
system.switch_cpus.iew.iewIdleCycles                0                       # Number of cycles IEW is idle
system.switch_cpus.iew.iewLSQFullEvents      32418545                       # Number of times the LSQ has become full, causing a stall
system.switch_cpus.iew.iewSquashCycles       29049955                       # Number of cycles IEW is squashing
system.switch_cpus.iew.iewUnblockCycles      32775940                       # Number of cycles IEW is unblocking
system.switch_cpus.iew.memOrderViolationEvents        20764                       # Number of memory order violations
system.switch_cpus.iew.predictedNotTakenIncorrect     15189308                       # Number of branches that were predicted not taken incorrectly
system.switch_cpus.iew.predictedTakenIncorrect     15721621                       # Number of branches that were predicted taken incorrectly
system.switch_cpus.iew.wb_consumers        2740245214                       # num instructions consuming a value
system.switch_cpus.iew.wb_count            2721040648                       # cumulative count of insts written-back
system.switch_cpus.iew.wb_fanout             0.562168                       # average fanout of values written-back
system.switch_cpus.iew.wb_producers        1540478375                       # num instructions producing a value
system.switch_cpus.iew.wb_rate               2.285667                       # insts written-back per cycle
system.switch_cpus.iew.wb_sent             2727260139                       # cumulative count of insts sent to commit
system.switch_cpus.int_regfile_reads       3623436068                       # number of integer regfile reads
system.switch_cpus.int_regfile_writes      1779560060                       # number of integer regfile writes
system.switch_cpus.ipc                       1.679995                       # IPC: Instructions Per Cycle
system.switch_cpus.ipc_total                 1.679995                       # IPC: Total IPC of All Threads
system.switch_cpus.iq.FU_type_0::No_OpClass           95      0.00%      0.00% # Type of FU issued
system.switch_cpus.iq.FU_type_0::IntAlu    1732156667     60.83%     60.83% # Type of FU issued
system.switch_cpus.iq.FU_type_0::IntMult     55751758      1.96%     62.79% # Type of FU issued
system.switch_cpus.iq.FU_type_0::IntDiv      16990511      0.60%     63.39% # Type of FU issued
system.switch_cpus.iq.FU_type_0::FloatAdd     89130721      3.13%     66.52% # Type of FU issued
system.switch_cpus.iq.FU_type_0::FloatCmp     28839496      1.01%     67.53% # Type of FU issued
system.switch_cpus.iq.FU_type_0::FloatCvt            0      0.00%     67.53% # Type of FU issued
system.switch_cpus.iq.FU_type_0::FloatMult     44708305      1.57%     69.10% # Type of FU issued
system.switch_cpus.iq.FU_type_0::FloatMultAcc            0      0.00%     69.10% # Type of FU issued
system.switch_cpus.iq.FU_type_0::FloatDiv            0      0.00%     69.10% # Type of FU issued
system.switch_cpus.iq.FU_type_0::FloatMisc     34452580      1.21%     70.31% # Type of FU issued
system.switch_cpus.iq.FU_type_0::FloatSqrt            0      0.00%     70.31% # Type of FU issued
system.switch_cpus.iq.FU_type_0::SimdAdd            0      0.00%     70.31% # Type of FU issued
system.switch_cpus.iq.FU_type_0::SimdAddAcc            0      0.00%     70.31% # Type of FU issued
system.switch_cpus.iq.FU_type_0::SimdAlu            0      0.00%     70.31% # Type of FU issued
system.switch_cpus.iq.FU_type_0::SimdCmp            0      0.00%     70.31% # Type of FU issued
system.switch_cpus.iq.FU_type_0::SimdCvt            0      0.00%     70.31% # Type of FU issued
system.switch_cpus.iq.FU_type_0::SimdMisc            0      0.00%     70.31% # Type of FU issued
system.switch_cpus.iq.FU_type_0::SimdMult            0      0.00%     70.31% # Type of FU issued
system.switch_cpus.iq.FU_type_0::SimdMultAcc            0      0.00%     70.31% # Type of FU issued
system.switch_cpus.iq.FU_type_0::SimdShift            0      0.00%     70.31% # Type of FU issued
system.switch_cpus.iq.FU_type_0::SimdShiftAcc            0      0.00%     70.31% # Type of FU issued
system.switch_cpus.iq.FU_type_0::SimdDiv            0      0.00%     70.31% # Type of FU issued
system.switch_cpus.iq.FU_type_0::SimdSqrt            0      0.00%     70.31% # Type of FU issued
system.switch_cpus.iq.FU_type_0::SimdFloatAdd            0      0.00%     70.31% # Type of FU issued
system.switch_cpus.iq.FU_type_0::SimdFloatAlu            0      0.00%     70.31% # Type of FU issued
system.switch_cpus.iq.FU_type_0::SimdFloatCmp            0      0.00%     70.31% # Type of FU issued
system.switch_cpus.iq.FU_type_0::SimdFloatCvt            0      0.00%     70.31% # Type of FU issued
system.switch_cpus.iq.FU_type_0::SimdFloatDiv            0      0.00%     70.31% # Type of FU issued
system.switch_cpus.iq.FU_type_0::SimdFloatMisc            0      0.00%     70.31% # Type of FU issued
system.switch_cpus.iq.FU_type_0::SimdFloatMult            0      0.00%     70.31% # Type of FU issued
system.switch_cpus.iq.FU_type_0::SimdFloatMultAcc            0      0.00%     70.31% # Type of FU issued
system.switch_cpus.iq.FU_type_0::SimdFloatSqrt            0      0.00%     70.31% # Type of FU issued
system.switch_cpus.iq.FU_type_0::SimdReduceAdd            0      0.00%     70.31% # Type of FU issued
system.switch_cpus.iq.FU_type_0::SimdReduceAlu            0      0.00%     70.31% # Type of FU issued
system.switch_cpus.iq.FU_type_0::SimdReduceCmp            0      0.00%     70.31% # Type of FU issued
system.switch_cpus.iq.FU_type_0::SimdFloatReduceAdd            0      0.00%     70.31% # Type of FU issued
system.switch_cpus.iq.FU_type_0::SimdFloatReduceCmp            0      0.00%     70.31% # Type of FU issued
system.switch_cpus.iq.FU_type_0::SimdAes            0      0.00%     70.31% # Type of FU issued
system.switch_cpus.iq.FU_type_0::SimdAesMix            0      0.00%     70.31% # Type of FU issued
system.switch_cpus.iq.FU_type_0::SimdSha1Hash            0      0.00%     70.31% # Type of FU issued
system.switch_cpus.iq.FU_type_0::SimdSha1Hash2            0      0.00%     70.31% # Type of FU issued
system.switch_cpus.iq.FU_type_0::SimdSha256Hash            0      0.00%     70.31% # Type of FU issued
system.switch_cpus.iq.FU_type_0::SimdSha256Hash2            0      0.00%     70.31% # Type of FU issued
system.switch_cpus.iq.FU_type_0::SimdShaSigma2            0      0.00%     70.31% # Type of FU issued
system.switch_cpus.iq.FU_type_0::SimdShaSigma3            0      0.00%     70.31% # Type of FU issued
system.switch_cpus.iq.FU_type_0::SimdPredAlu            0      0.00%     70.31% # Type of FU issued
system.switch_cpus.iq.FU_type_0::MemRead    568412895     19.96%     90.27% # Type of FU issued
system.switch_cpus.iq.FU_type_0::MemWrite    276968473      9.73%    100.00% # Type of FU issued
system.switch_cpus.iq.FU_type_0::FloatMemRead            0      0.00%    100.00% # Type of FU issued
system.switch_cpus.iq.FU_type_0::FloatMemWrite            0      0.00%    100.00% # Type of FU issued
system.switch_cpus.iq.FU_type_0::IprAccess            0      0.00%    100.00% # Type of FU issued
system.switch_cpus.iq.FU_type_0::InstPrefetch            0      0.00%    100.00% # Type of FU issued
system.switch_cpus.iq.FU_type_0::total     2847411501                       # Type of FU issued
system.switch_cpus.iq.fp_alu_accesses               0                       # Number of floating point alu accesses
system.switch_cpus.iq.fp_inst_queue_reads            0                       # Number of floating instruction queue reads
system.switch_cpus.iq.fp_inst_queue_wakeup_accesses            0                       # Number of floating instruction queue wakeup accesses
system.switch_cpus.iq.fp_inst_queue_writes            0                       # Number of floating instruction queue writes
system.switch_cpus.iq.fu_busy_cnt            35393112                       # FU busy when requested
system.switch_cpus.iq.fu_busy_rate           0.012430                       # FU busy rate (busy events/executed inst)
system.switch_cpus.iq.fu_full::No_OpClass            0      0.00%      0.00% # attempts to use FU when none available
system.switch_cpus.iq.fu_full::IntAlu        15018811     42.43%     42.43% # attempts to use FU when none available
system.switch_cpus.iq.fu_full::IntMult         563711      1.59%     44.03% # attempts to use FU when none available
system.switch_cpus.iq.fu_full::IntDiv           43926      0.12%     44.15% # attempts to use FU when none available
system.switch_cpus.iq.fu_full::FloatAdd         20605      0.06%     44.21% # attempts to use FU when none available
system.switch_cpus.iq.fu_full::FloatCmp           970      0.00%     44.21% # attempts to use FU when none available
system.switch_cpus.iq.fu_full::FloatCvt             0      0.00%     44.21% # attempts to use FU when none available
system.switch_cpus.iq.fu_full::FloatMult       133122      0.38%     44.59% # attempts to use FU when none available
system.switch_cpus.iq.fu_full::FloatMultAcc            0      0.00%     44.59% # attempts to use FU when none available
system.switch_cpus.iq.fu_full::FloatDiv             0      0.00%     44.59% # attempts to use FU when none available
system.switch_cpus.iq.fu_full::FloatMisc       452801      1.28%     45.87% # attempts to use FU when none available
system.switch_cpus.iq.fu_full::FloatSqrt            0      0.00%     45.87% # attempts to use FU when none available
system.switch_cpus.iq.fu_full::SimdAdd              0      0.00%     45.87% # attempts to use FU when none available
system.switch_cpus.iq.fu_full::SimdAddAcc            0      0.00%     45.87% # attempts to use FU when none available
system.switch_cpus.iq.fu_full::SimdAlu              0      0.00%     45.87% # attempts to use FU when none available
system.switch_cpus.iq.fu_full::SimdCmp              0      0.00%     45.87% # attempts to use FU when none available
system.switch_cpus.iq.fu_full::SimdCvt              0      0.00%     45.87% # attempts to use FU when none available
system.switch_cpus.iq.fu_full::SimdMisc             0      0.00%     45.87% # attempts to use FU when none available
system.switch_cpus.iq.fu_full::SimdMult             0      0.00%     45.87% # attempts to use FU when none available
system.switch_cpus.iq.fu_full::SimdMultAcc            0      0.00%     45.87% # attempts to use FU when none available
system.switch_cpus.iq.fu_full::SimdShift            0      0.00%     45.87% # attempts to use FU when none available
system.switch_cpus.iq.fu_full::SimdShiftAcc            0      0.00%     45.87% # attempts to use FU when none available
system.switch_cpus.iq.fu_full::SimdDiv              0      0.00%     45.87% # attempts to use FU when none available
system.switch_cpus.iq.fu_full::SimdSqrt             0      0.00%     45.87% # attempts to use FU when none available
system.switch_cpus.iq.fu_full::SimdFloatAdd            0      0.00%     45.87% # attempts to use FU when none available
system.switch_cpus.iq.fu_full::SimdFloatAlu            0      0.00%     45.87% # attempts to use FU when none available
system.switch_cpus.iq.fu_full::SimdFloatCmp            0      0.00%     45.87% # attempts to use FU when none available
system.switch_cpus.iq.fu_full::SimdFloatCvt            0      0.00%     45.87% # attempts to use FU when none available
system.switch_cpus.iq.fu_full::SimdFloatDiv            0      0.00%     45.87% # attempts to use FU when none available
system.switch_cpus.iq.fu_full::SimdFloatMisc            0      0.00%     45.87% # attempts to use FU when none available
system.switch_cpus.iq.fu_full::SimdFloatMult            0      0.00%     45.87% # attempts to use FU when none available
system.switch_cpus.iq.fu_full::SimdFloatMultAcc            0      0.00%     45.87% # attempts to use FU when none available
system.switch_cpus.iq.fu_full::SimdFloatSqrt            0      0.00%     45.87% # attempts to use FU when none available
system.switch_cpus.iq.fu_full::SimdReduceAdd            0      0.00%     45.87% # attempts to use FU when none available
system.switch_cpus.iq.fu_full::SimdReduceAlu            0      0.00%     45.87% # attempts to use FU when none available
system.switch_cpus.iq.fu_full::SimdReduceCmp            0      0.00%     45.87% # attempts to use FU when none available
system.switch_cpus.iq.fu_full::SimdFloatReduceAdd            0      0.00%     45.87% # attempts to use FU when none available
system.switch_cpus.iq.fu_full::SimdFloatReduceCmp            0      0.00%     45.87% # attempts to use FU when none available
system.switch_cpus.iq.fu_full::SimdAes              0      0.00%     45.87% # attempts to use FU when none available
system.switch_cpus.iq.fu_full::SimdAesMix            0      0.00%     45.87% # attempts to use FU when none available
system.switch_cpus.iq.fu_full::SimdSha1Hash            0      0.00%     45.87% # attempts to use FU when none available
system.switch_cpus.iq.fu_full::SimdSha1Hash2            0      0.00%     45.87% # attempts to use FU when none available
system.switch_cpus.iq.fu_full::SimdSha256Hash            0      0.00%     45.87% # attempts to use FU when none available
system.switch_cpus.iq.fu_full::SimdSha256Hash2            0      0.00%     45.87% # attempts to use FU when none available
system.switch_cpus.iq.fu_full::SimdShaSigma2            0      0.00%     45.87% # attempts to use FU when none available
system.switch_cpus.iq.fu_full::SimdShaSigma3            0      0.00%     45.87% # attempts to use FU when none available
system.switch_cpus.iq.fu_full::SimdPredAlu            0      0.00%     45.87% # attempts to use FU when none available
system.switch_cpus.iq.fu_full::MemRead       10408046     29.41%     75.27% # attempts to use FU when none available
system.switch_cpus.iq.fu_full::MemWrite       8751120     24.73%    100.00% # attempts to use FU when none available
system.switch_cpus.iq.fu_full::FloatMemRead            0      0.00%    100.00% # attempts to use FU when none available
system.switch_cpus.iq.fu_full::FloatMemWrite            0      0.00%    100.00% # attempts to use FU when none available
system.switch_cpus.iq.fu_full::IprAccess            0      0.00%    100.00% # attempts to use FU when none available
system.switch_cpus.iq.fu_full::InstPrefetch            0      0.00%    100.00% # attempts to use FU when none available
system.switch_cpus.iq.int_alu_accesses     2523266603                       # Number of integer alu accesses
system.switch_cpus.iq.int_inst_queue_reads   6205584376                       # Number of integer instruction queue reads
system.switch_cpus.iq.int_inst_queue_wakeup_accesses   2377330935                       # Number of integer instruction queue wakeup accesses
system.switch_cpus.iq.int_inst_queue_writes   3320897931                       # Number of integer instruction queue writes
system.switch_cpus.iq.iqInstsAdded         2983529493                       # Number of instructions added to the IQ (excludes non-spec)
system.switch_cpus.iq.iqInstsIssued        2847411501                       # Number of instructions issued
system.switch_cpus.iq.iqNonSpecInstsAdded           82                       # Number of non-speculative instructions added to the IQ
system.switch_cpus.iq.iqSquashedInstsExamined    800261718                       # Number of squashed instructions iterated over during squash; mainly for profiling
system.switch_cpus.iq.iqSquashedInstsIssued       492972                       # Number of squashed instructions issued
system.switch_cpus.iq.iqSquashedNonSpecRemoved           46                       # Number of squashed non-spec instructions that were removed
system.switch_cpus.iq.iqSquashedOperandsExamined    575219252                       # Number of squashed operands that are examined and possibly removed from graph
system.switch_cpus.iq.issued_per_cycle::samples   1190468150                       # Number of insts issued each cycle
system.switch_cpus.iq.issued_per_cycle::mean     2.391842                       # Number of insts issued each cycle
system.switch_cpus.iq.issued_per_cycle::stdev     2.248380                       # Number of insts issued each cycle
system.switch_cpus.iq.issued_per_cycle::underflows            0      0.00%      0.00% # Number of insts issued each cycle
system.switch_cpus.iq.issued_per_cycle::0    356390414     29.94%     29.94% # Number of insts issued each cycle
system.switch_cpus.iq.issued_per_cycle::1    171925786     14.44%     44.38% # Number of insts issued each cycle
system.switch_cpus.iq.issued_per_cycle::2    153495947     12.89%     57.27% # Number of insts issued each cycle
system.switch_cpus.iq.issued_per_cycle::3    124387611     10.45%     67.72% # Number of insts issued each cycle
system.switch_cpus.iq.issued_per_cycle::4    143972748     12.09%     79.82% # Number of insts issued each cycle
system.switch_cpus.iq.issued_per_cycle::5    104871927      8.81%     88.62% # Number of insts issued each cycle
system.switch_cpus.iq.issued_per_cycle::6     77694232      6.53%     95.15% # Number of insts issued each cycle
system.switch_cpus.iq.issued_per_cycle::7     32920911      2.77%     97.92% # Number of insts issued each cycle
system.switch_cpus.iq.issued_per_cycle::8     24808574      2.08%    100.00% # Number of insts issued each cycle
system.switch_cpus.iq.issued_per_cycle::overflows            0      0.00%    100.00% # Number of insts issued each cycle
system.switch_cpus.iq.issued_per_cycle::min_value            0                       # Number of insts issued each cycle
system.switch_cpus.iq.issued_per_cycle::max_value            8                       # Number of insts issued each cycle
system.switch_cpus.iq.issued_per_cycle::total   1190468150                       # Number of insts issued each cycle
system.switch_cpus.iq.rate                   2.391818                       # Inst issue rate
system.switch_cpus.iq.vec_alu_accesses      359537915                       # Number of vector alu accesses
system.switch_cpus.iq.vec_inst_queue_reads    715592855                       # Number of vector instruction queue reads
system.switch_cpus.iq.vec_inst_queue_wakeup_accesses    343709713                       # Number of vector instruction queue wakeup accesses
system.switch_cpus.iq.vec_inst_queue_writes    462912965                       # Number of vector instruction queue writes
system.switch_cpus.memDep0.conflictingLoads      7449363                       # Number of conflicting loads.
system.switch_cpus.memDep0.conflictingStores     13982399                       # Number of conflicting stores.
system.switch_cpus.memDep0.insertedLoads    562667048                       # Number of loads inserted to the mem dependence unit.
system.switch_cpus.memDep0.insertedStores    280306426                       # Number of stores inserted to the mem dependence unit.
system.switch_cpus.misc_regfile_reads      7333143847                       # number of misc regfile reads
system.switch_cpus.misc_regfile_writes      154765026                       # number of misc regfile writes
system.switch_cpus.numCycles               1190479916                       # number of cpu cycles simulated
system.switch_cpus.numWorkItemsCompleted            0                       # number of work items this cpu completed
system.switch_cpus.numWorkItemsStarted              0                       # number of work items this cpu started
system.switch_cpus.timesIdled                     116                       # Number of times that the entire CPU went into an idle state and unscheduled itself
system.switch_cpus.vec_regfile_reads        373872466                       # number of vector regfile reads
system.switch_cpus.vec_regfile_writes       308279428                       # number of vector regfile writes
system.tol2bus.snoop_filter.hit_multi_requests            0                       # Number of requests hitting in the snoop filter with multiple (>1) holders of the requested data.
system.tol2bus.snoop_filter.hit_multi_snoops            0                       # Number of snoops hitting in the snoop filter with multiple (>1) holders of the requested data.
system.tol2bus.snoop_filter.hit_single_requests     15272182                       # Number of requests hitting in the snoop filter with a single holder of the requested data.
system.tol2bus.snoop_filter.hit_single_snoops          257                       # Number of snoops hitting in the snoop filter with a single holder of the requested data.
system.tol2bus.snoop_filter.tot_requests     30545037                       # Total number of requests made to the snoop filter.
system.tol2bus.snoop_filter.tot_snoops            257                       # Total number of snoops made to the snoop filter.
system.clk_domain.clock                          1000                       # Clock period in ticks
system.cpu.dcache.demand_hits::.cpu.data            4                       # number of demand (read+write) hits
system.cpu.dcache.demand_hits::.switch_cpus.data    681938998                       # number of demand (read+write) hits
system.cpu.dcache.demand_hits::total        681939002                       # number of demand (read+write) hits
system.cpu.dcache.overall_hits::.cpu.data            4                       # number of overall hits
system.cpu.dcache.overall_hits::.switch_cpus.data    681938998                       # number of overall hits
system.cpu.dcache.overall_hits::total       681939002                       # number of overall hits
system.cpu.dcache.demand_misses::.cpu.data            3                       # number of demand (read+write) misses
system.cpu.dcache.demand_misses::.switch_cpus.data     32405519                       # number of demand (read+write) misses
system.cpu.dcache.demand_misses::total       32405522                       # number of demand (read+write) misses
system.cpu.dcache.overall_misses::.cpu.data            3                       # number of overall misses
system.cpu.dcache.overall_misses::.switch_cpus.data     32405519                       # number of overall misses
system.cpu.dcache.overall_misses::total      32405522                       # number of overall misses
system.cpu.dcache.demand_miss_latency::.switch_cpus.data 447282863554                       # number of demand (read+write) miss cycles
system.cpu.dcache.demand_miss_latency::total 447282863554                       # number of demand (read+write) miss cycles
system.cpu.dcache.overall_miss_latency::.switch_cpus.data 447282863554                       # number of overall miss cycles
system.cpu.dcache.overall_miss_latency::total 447282863554                       # number of overall miss cycles
system.cpu.dcache.demand_accesses::.cpu.data            7                       # number of demand (read+write) accesses
system.cpu.dcache.demand_accesses::.switch_cpus.data    714344517                       # number of demand (read+write) accesses
system.cpu.dcache.demand_accesses::total    714344524                       # number of demand (read+write) accesses
system.cpu.dcache.overall_accesses::.cpu.data            7                       # number of overall (read+write) accesses
system.cpu.dcache.overall_accesses::.switch_cpus.data    714344517                       # number of overall (read+write) accesses
system.cpu.dcache.overall_accesses::total    714344524                       # number of overall (read+write) accesses
system.cpu.dcache.demand_miss_rate::.cpu.data     0.428571                       # miss rate for demand accesses
system.cpu.dcache.demand_miss_rate::.switch_cpus.data     0.045364                       # miss rate for demand accesses
system.cpu.dcache.demand_miss_rate::total     0.045364                       # miss rate for demand accesses
system.cpu.dcache.overall_miss_rate::.cpu.data     0.428571                       # miss rate for overall accesses
system.cpu.dcache.overall_miss_rate::.switch_cpus.data     0.045364                       # miss rate for overall accesses
system.cpu.dcache.overall_miss_rate::total     0.045364                       # miss rate for overall accesses
system.cpu.dcache.demand_avg_miss_latency::.switch_cpus.data 13802.675512                       # average overall miss latency
system.cpu.dcache.demand_avg_miss_latency::total 13802.674234                       # average overall miss latency
system.cpu.dcache.overall_avg_miss_latency::.switch_cpus.data 13802.675512                       # average overall miss latency
system.cpu.dcache.overall_avg_miss_latency::total 13802.674234                       # average overall miss latency
system.cpu.dcache.blocked_cycles::no_mshrs       919127                       # number of cycles access was blocked
system.cpu.dcache.blocked_cycles::no_targets           10                       # number of cycles access was blocked
system.cpu.dcache.blocked::no_mshrs             93294                       # number of cycles access was blocked
system.cpu.dcache.blocked::no_targets               1                       # number of cycles access was blocked
system.cpu.dcache.avg_blocked_cycles::no_mshrs     9.851941                       # average number of cycles each access was blocked
system.cpu.dcache.avg_blocked_cycles::no_targets           10                       # average number of cycles each access was blocked
system.cpu.dcache.ghost_timestamp_misses            0                       # number of times timestamp policy causes a block to be inaccessible
system.cpu.dcache.ghost_commits                     0                       # number of cache lines moved from ghost to main
system.cpu.dcache.same_leapfrogs                    0                       # number of times leapfrogging occurs with a shared MSHR request
system.cpu.dcache.writebacks::.writebacks     15272182                       # number of writebacks
system.cpu.dcache.writebacks::total          15272182                       # number of writebacks
system.cpu.dcache.demand_mshr_hits::.switch_cpus.data     17132828                       # number of demand (read+write) MSHR hits
system.cpu.dcache.demand_mshr_hits::total     17132828                       # number of demand (read+write) MSHR hits
system.cpu.dcache.overall_mshr_hits::.switch_cpus.data     17132828                       # number of overall MSHR hits
system.cpu.dcache.overall_mshr_hits::total     17132828                       # number of overall MSHR hits
system.cpu.dcache.demand_mshr_misses::.switch_cpus.data     15272691                       # number of demand (read+write) MSHR misses
system.cpu.dcache.demand_mshr_misses::total     15272691                       # number of demand (read+write) MSHR misses
system.cpu.dcache.overall_mshr_misses::.switch_cpus.data     15272691                       # number of overall MSHR misses
system.cpu.dcache.overall_mshr_misses::total     15272691                       # number of overall MSHR misses
system.cpu.dcache.demand_mshr_miss_latency::.switch_cpus.data 192561668928                       # number of demand (read+write) MSHR miss cycles
system.cpu.dcache.demand_mshr_miss_latency::total 192561668928                       # number of demand (read+write) MSHR miss cycles
system.cpu.dcache.overall_mshr_miss_latency::.switch_cpus.data 192561668928                       # number of overall MSHR miss cycles
system.cpu.dcache.overall_mshr_miss_latency::total 192561668928                       # number of overall MSHR miss cycles
system.cpu.dcache.demand_mshr_miss_rate::.switch_cpus.data     0.021380                       # mshr miss rate for demand accesses
system.cpu.dcache.demand_mshr_miss_rate::total     0.021380                       # mshr miss rate for demand accesses
system.cpu.dcache.overall_mshr_miss_rate::.switch_cpus.data     0.021380                       # mshr miss rate for overall accesses
system.cpu.dcache.overall_mshr_miss_rate::total     0.021380                       # mshr miss rate for overall accesses
system.cpu.dcache.demand_avg_mshr_miss_latency::.switch_cpus.data 12608.234458                       # average overall mshr miss latency
system.cpu.dcache.demand_avg_mshr_miss_latency::total 12608.234458                       # average overall mshr miss latency
system.cpu.dcache.overall_avg_mshr_miss_latency::.switch_cpus.data 12608.234458                       # average overall mshr miss latency
system.cpu.dcache.overall_avg_mshr_miss_latency::total 12608.234458                       # average overall mshr miss latency
system.cpu.dcache.replacements               15272182                       # number of replacements
system.cpu.dcache.ReadReq_hits::.cpu.data            4                       # number of ReadReq hits
system.cpu.dcache.ReadReq_hits::.switch_cpus.data    467983511                       # number of ReadReq hits
system.cpu.dcache.ReadReq_hits::total       467983515                       # number of ReadReq hits
system.cpu.dcache.ReadReq_misses::.cpu.data            3                       # number of ReadReq misses
system.cpu.dcache.ReadReq_misses::.switch_cpus.data     27195893                       # number of ReadReq misses
system.cpu.dcache.ReadReq_misses::total      27195896                       # number of ReadReq misses
system.cpu.dcache.ReadReq_miss_latency::.switch_cpus.data 348525111500                       # number of ReadReq miss cycles
system.cpu.dcache.ReadReq_miss_latency::total 348525111500                       # number of ReadReq miss cycles
system.cpu.dcache.ReadReq_accesses::.cpu.data            7                       # number of ReadReq accesses(hits+misses)
system.cpu.dcache.ReadReq_accesses::.switch_cpus.data    495179404                       # number of ReadReq accesses(hits+misses)
system.cpu.dcache.ReadReq_accesses::total    495179411                       # number of ReadReq accesses(hits+misses)
system.cpu.dcache.ReadReq_miss_rate::.cpu.data     0.428571                       # miss rate for ReadReq accesses
system.cpu.dcache.ReadReq_miss_rate::.switch_cpus.data     0.054921                       # miss rate for ReadReq accesses
system.cpu.dcache.ReadReq_miss_rate::total     0.054921                       # miss rate for ReadReq accesses
system.cpu.dcache.ReadReq_avg_miss_latency::.switch_cpus.data 12815.358242                       # average ReadReq miss latency
system.cpu.dcache.ReadReq_avg_miss_latency::total 12815.356828                       # average ReadReq miss latency
system.cpu.dcache.ReadReq_mshr_hits::.switch_cpus.data     12596054                       # number of ReadReq MSHR hits
system.cpu.dcache.ReadReq_mshr_hits::total     12596054                       # number of ReadReq MSHR hits
system.cpu.dcache.ReadReq_mshr_misses::.switch_cpus.data     14599839                       # number of ReadReq MSHR misses
system.cpu.dcache.ReadReq_mshr_misses::total     14599839                       # number of ReadReq MSHR misses
system.cpu.dcache.ReadReq_mshr_miss_latency::.switch_cpus.data 180037641500                       # number of ReadReq MSHR miss cycles
system.cpu.dcache.ReadReq_mshr_miss_latency::total 180037641500                       # number of ReadReq MSHR miss cycles
system.cpu.dcache.ReadReq_mshr_miss_rate::.switch_cpus.data     0.029484                       # mshr miss rate for ReadReq accesses
system.cpu.dcache.ReadReq_mshr_miss_rate::total     0.029484                       # mshr miss rate for ReadReq accesses
system.cpu.dcache.ReadReq_avg_mshr_miss_latency::.switch_cpus.data 12331.481292                       # average ReadReq mshr miss latency
system.cpu.dcache.ReadReq_avg_mshr_miss_latency::total 12331.481292                       # average ReadReq mshr miss latency
system.cpu.dcache.WriteReq_hits::.switch_cpus.data    213955487                       # number of WriteReq hits
system.cpu.dcache.WriteReq_hits::total      213955487                       # number of WriteReq hits
system.cpu.dcache.WriteReq_misses::.switch_cpus.data      5209626                       # number of WriteReq misses
system.cpu.dcache.WriteReq_misses::total      5209626                       # number of WriteReq misses
system.cpu.dcache.WriteReq_miss_latency::.switch_cpus.data  98757752054                       # number of WriteReq miss cycles
system.cpu.dcache.WriteReq_miss_latency::total  98757752054                       # number of WriteReq miss cycles
system.cpu.dcache.WriteReq_accesses::.switch_cpus.data    219165113                       # number of WriteReq accesses(hits+misses)
system.cpu.dcache.WriteReq_accesses::total    219165113                       # number of WriteReq accesses(hits+misses)
system.cpu.dcache.WriteReq_miss_rate::.switch_cpus.data     0.023770                       # miss rate for WriteReq accesses
system.cpu.dcache.WriteReq_miss_rate::total     0.023770                       # miss rate for WriteReq accesses
system.cpu.dcache.WriteReq_avg_miss_latency::.switch_cpus.data 18956.783472                       # average WriteReq miss latency
system.cpu.dcache.WriteReq_avg_miss_latency::total 18956.783472                       # average WriteReq miss latency
system.cpu.dcache.WriteReq_mshr_hits::.switch_cpus.data      4536774                       # number of WriteReq MSHR hits
system.cpu.dcache.WriteReq_mshr_hits::total      4536774                       # number of WriteReq MSHR hits
system.cpu.dcache.WriteReq_mshr_misses::.switch_cpus.data       672852                       # number of WriteReq MSHR misses
system.cpu.dcache.WriteReq_mshr_misses::total       672852                       # number of WriteReq MSHR misses
system.cpu.dcache.WriteReq_mshr_miss_latency::.switch_cpus.data  12524027428                       # number of WriteReq MSHR miss cycles
system.cpu.dcache.WriteReq_mshr_miss_latency::total  12524027428                       # number of WriteReq MSHR miss cycles
system.cpu.dcache.WriteReq_mshr_miss_rate::.switch_cpus.data     0.003070                       # mshr miss rate for WriteReq accesses
system.cpu.dcache.WriteReq_mshr_miss_rate::total     0.003070                       # mshr miss rate for WriteReq accesses
system.cpu.dcache.WriteReq_avg_mshr_miss_latency::.switch_cpus.data 18613.346513                       # average WriteReq mshr miss latency
system.cpu.dcache.WriteReq_avg_mshr_miss_latency::total 18613.346513                       # average WriteReq mshr miss latency
system.cpu.dcache.ghosttags.tagsinuse               0                       # Cycle average of tags in use
system.cpu.dcache.ghosttags.total_refs              0                       # Total number of references to valid blocks.
system.cpu.dcache.ghosttags.sampled_refs            0                       # Sample count of references to valid blocks.
system.cpu.dcache.ghosttags.avg_refs              nan                       # Average number of references to valid blocks.
system.cpu.dcache.ghosttags.warmup_cycle            0                       # Cycle when the warmup percentage was hit.
system.cpu.dcache.ghosttags.tag_accesses            0                       # Number of tag accesses
system.cpu.dcache.ghosttags.data_accesses            0                       # Number of data accesses
system.cpu.dcache.ghosttags.repl_invalid            0                       # Number of initial replacements
system.cpu.dcache.ghosttags.repl_valid_tag            0                       # Number of local replacements
system.cpu.dcache.ghosttags.repl_valid_data            0                       # Number of global replacements
system.cpu.dcache.ghosttags.power_state.pwrStateResidencyTicks::UNDEFINED 6143756485500                       # Cumulative time (in ticks) in various power states
system.cpu.dcache.power_state.pwrStateResidencyTicks::UNDEFINED 6143756485500                       # Cumulative time (in ticks) in various power states
system.cpu.dcache.tags.tagsinuse           511.986558                       # Cycle average of tags in use
system.cpu.dcache.tags.total_refs           697211696                       # Total number of references to valid blocks.
system.cpu.dcache.tags.sampled_refs          15272694                       # Sample count of references to valid blocks.
system.cpu.dcache.tags.avg_refs             45.650865                       # Average number of references to valid blocks.
system.cpu.dcache.tags.warmup_cycle      5548516518500                       # Cycle when the warmup percentage was hit.
system.cpu.dcache.tags.occ_blocks::.cpu.data     0.001713                       # Average occupied blocks per requestor
system.cpu.dcache.tags.occ_blocks::.switch_cpus.data   511.984845                       # Average occupied blocks per requestor
system.cpu.dcache.tags.occ_percent::.cpu.data     0.000003                       # Average percentage of cache occupancy
system.cpu.dcache.tags.occ_percent::.switch_cpus.data     0.999970                       # Average percentage of cache occupancy
system.cpu.dcache.tags.occ_percent::total     0.999974                       # Average percentage of cache occupancy
system.cpu.dcache.tags.occ_task_id_blocks::1024          512                       # Occupied blocks per task id
system.cpu.dcache.tags.age_task_id_blocks_1024::0            1                       # Occupied blocks per task id
system.cpu.dcache.tags.age_task_id_blocks_1024::1          411                       # Occupied blocks per task id
system.cpu.dcache.tags.age_task_id_blocks_1024::2           88                       # Occupied blocks per task id
system.cpu.dcache.tags.age_task_id_blocks_1024::3           12                       # Occupied blocks per task id
system.cpu.dcache.tags.occ_task_id_percent::1024            1                       # Percentage of cache occupancy per task id
system.cpu.dcache.tags.tag_accesses        5730028886                       # Number of tag accesses
system.cpu.dcache.tags.data_accesses       5730028886                       # Number of data accesses
system.cpu.dcache.tags.repl_invalid                 0                       # Number of initial replacements
system.cpu.dcache.tags.repl_valid_tag               0                       # Number of local replacements
system.cpu.dcache.tags.repl_valid_data              0                       # Number of global replacements
system.cpu.dcache.tags.power_state.pwrStateResidencyTicks::UNDEFINED 6143756485500                       # Cumulative time (in ticks) in various power states
system.cpu.dtb.instHits                             0                       # ITB inst hits
system.cpu.dtb.instMisses                           0                       # ITB inst misses
system.cpu.dtb.readHits                             0                       # DTB read hits
system.cpu.dtb.readMisses                           0                       # DTB read misses
system.cpu.dtb.writeHits                            0                       # DTB write hits
system.cpu.dtb.writeMisses                          0                       # DTB write misses
system.cpu.dtb.inserts                              0                       # Number of times an entry is inserted into the TLB
system.cpu.dtb.flushTlb                             2                       # Number of times complete TLB was flushed
system.cpu.dtb.flushTlbMva                          0                       # Number of times TLB was flushed by MVA
system.cpu.dtb.flushTlbMvaAsid                      0                       # Number of times TLB was flushed by MVA & ASID
system.cpu.dtb.flushTlbAsid                         0                       # Number of times TLB was flushed by ASID
system.cpu.dtb.flushedEntries                       0                       # Number of entries that have been flushed from TLB
system.cpu.dtb.alignFaults                          0                       # Number of TLB faults due to alignment restrictions
system.cpu.dtb.prefetchFaults                       0                       # Number of TLB faults due to prefetch
system.cpu.dtb.domainFaults                         0                       # Number of TLB faults due to domain restrictions
system.cpu.dtb.permsFaults                          0                       # Number of TLB faults due to permissions restrictions
system.cpu.dtb.readAccesses                         0                       # DTB read accesses
system.cpu.dtb.writeAccesses                        0                       # DTB write accesses
system.cpu.dtb.instAccesses                         0                       # ITB inst accesses
system.cpu.dtb.hits                                 0                       # Total TLB (inst and data) hits
system.cpu.dtb.misses                               0                       # Total TLB (inst and data) misses
system.cpu.dtb.accesses                             0                       # Total TLB (inst and data) accesses
system.cpu.dtb.stage2_mmu.stage2_tlb.instHits            0                       # ITB inst hits
system.cpu.dtb.stage2_mmu.stage2_tlb.instMisses            0                       # ITB inst misses
system.cpu.dtb.stage2_mmu.stage2_tlb.readHits            0                       # DTB read hits
system.cpu.dtb.stage2_mmu.stage2_tlb.readMisses            0                       # DTB read misses
system.cpu.dtb.stage2_mmu.stage2_tlb.writeHits            0                       # DTB write hits
system.cpu.dtb.stage2_mmu.stage2_tlb.writeMisses            0                       # DTB write misses
system.cpu.dtb.stage2_mmu.stage2_tlb.inserts            0                       # Number of times an entry is inserted into the TLB
system.cpu.dtb.stage2_mmu.stage2_tlb.flushTlb            0                       # Number of times complete TLB was flushed
system.cpu.dtb.stage2_mmu.stage2_tlb.flushTlbMva            0                       # Number of times TLB was flushed by MVA
system.cpu.dtb.stage2_mmu.stage2_tlb.flushTlbMvaAsid            0                       # Number of times TLB was flushed by MVA & ASID
system.cpu.dtb.stage2_mmu.stage2_tlb.flushTlbAsid            0                       # Number of times TLB was flushed by ASID
system.cpu.dtb.stage2_mmu.stage2_tlb.flushedEntries            0                       # Number of entries that have been flushed from TLB
system.cpu.dtb.stage2_mmu.stage2_tlb.alignFaults            0                       # Number of TLB faults due to alignment restrictions
system.cpu.dtb.stage2_mmu.stage2_tlb.prefetchFaults            0                       # Number of TLB faults due to prefetch
system.cpu.dtb.stage2_mmu.stage2_tlb.domainFaults            0                       # Number of TLB faults due to domain restrictions
system.cpu.dtb.stage2_mmu.stage2_tlb.permsFaults            0                       # Number of TLB faults due to permissions restrictions
system.cpu.dtb.stage2_mmu.stage2_tlb.readAccesses            0                       # DTB read accesses
system.cpu.dtb.stage2_mmu.stage2_tlb.writeAccesses            0                       # DTB write accesses
system.cpu.dtb.stage2_mmu.stage2_tlb.instAccesses            0                       # ITB inst accesses
system.cpu.dtb.stage2_mmu.stage2_tlb.hits            0                       # Total TLB (inst and data) hits
system.cpu.dtb.stage2_mmu.stage2_tlb.misses            0                       # Total TLB (inst and data) misses
system.cpu.dtb.stage2_mmu.stage2_tlb.accesses            0                       # Total TLB (inst and data) accesses
system.cpu.dtb.stage2_mmu.stage2_tlb.walker.walks            0                       # Table walker walks requested
system.cpu.dtb.stage2_mmu.stage2_tlb.walker.requestOrigin_Requested::Data            0                       # Table walker requests started/completed, data/inst
system.cpu.dtb.stage2_mmu.stage2_tlb.walker.requestOrigin_Requested::Inst            0                       # Table walker requests started/completed, data/inst
system.cpu.dtb.stage2_mmu.stage2_tlb.walker.requestOrigin_Requested::total            0                       # Table walker requests started/completed, data/inst
system.cpu.dtb.stage2_mmu.stage2_tlb.walker.requestOrigin_Completed::Data            0                       # Table walker requests started/completed, data/inst
system.cpu.dtb.stage2_mmu.stage2_tlb.walker.requestOrigin_Completed::Inst            0                       # Table walker requests started/completed, data/inst
system.cpu.dtb.stage2_mmu.stage2_tlb.walker.requestOrigin_Completed::total            0                       # Table walker requests started/completed, data/inst
system.cpu.dtb.stage2_mmu.stage2_tlb.walker.requestOrigin::total            0                       # Table walker requests started/completed, data/inst
system.cpu.dtb.stage2_mmu.stage2_tlb.walker.power_state.pwrStateResidencyTicks::UNDEFINED 6143756485500                       # Cumulative time (in ticks) in various power states
system.cpu.dtb.walker.walks                         0                       # Table walker walks requested
system.cpu.dtb.walker.requestOrigin_Requested::Data            0                       # Table walker requests started/completed, data/inst
system.cpu.dtb.walker.requestOrigin_Requested::Inst            0                       # Table walker requests started/completed, data/inst
system.cpu.dtb.walker.requestOrigin_Requested::total            0                       # Table walker requests started/completed, data/inst
system.cpu.dtb.walker.requestOrigin_Completed::Data            0                       # Table walker requests started/completed, data/inst
system.cpu.dtb.walker.requestOrigin_Completed::Inst            0                       # Table walker requests started/completed, data/inst
system.cpu.dtb.walker.requestOrigin_Completed::total            0                       # Table walker requests started/completed, data/inst
system.cpu.dtb.walker.requestOrigin::total            0                       # Table walker requests started/completed, data/inst
system.cpu.dtb.walker.power_state.pwrStateResidencyTicks::UNDEFINED 6143756485500                       # Cumulative time (in ticks) in various power states
system.cpu.icache.demand_hits::.cpu.inst           16                       # number of demand (read+write) hits
system.cpu.icache.demand_hits::.switch_cpus.inst    403266080                       # number of demand (read+write) hits
system.cpu.icache.demand_hits::total        403266096                       # number of demand (read+write) hits
system.cpu.icache.overall_hits::.cpu.inst           16                       # number of overall hits
system.cpu.icache.overall_hits::.switch_cpus.inst    403266080                       # number of overall hits
system.cpu.icache.overall_hits::total       403266096                       # number of overall hits
system.cpu.icache.demand_misses::.cpu.inst            4                       # number of demand (read+write) misses
system.cpu.icache.demand_misses::.switch_cpus.inst          187                       # number of demand (read+write) misses
system.cpu.icache.demand_misses::total            191                       # number of demand (read+write) misses
system.cpu.icache.overall_misses::.cpu.inst            4                       # number of overall misses
system.cpu.icache.overall_misses::.switch_cpus.inst          187                       # number of overall misses
system.cpu.icache.overall_misses::total           191                       # number of overall misses
system.cpu.icache.demand_miss_latency::.switch_cpus.inst     14628999                       # number of demand (read+write) miss cycles
system.cpu.icache.demand_miss_latency::total     14628999                       # number of demand (read+write) miss cycles
system.cpu.icache.overall_miss_latency::.switch_cpus.inst     14628999                       # number of overall miss cycles
system.cpu.icache.overall_miss_latency::total     14628999                       # number of overall miss cycles
system.cpu.icache.demand_accesses::.cpu.inst           20                       # number of demand (read+write) accesses
system.cpu.icache.demand_accesses::.switch_cpus.inst    403266267                       # number of demand (read+write) accesses
system.cpu.icache.demand_accesses::total    403266287                       # number of demand (read+write) accesses
system.cpu.icache.overall_accesses::.cpu.inst           20                       # number of overall (read+write) accesses
system.cpu.icache.overall_accesses::.switch_cpus.inst    403266267                       # number of overall (read+write) accesses
system.cpu.icache.overall_accesses::total    403266287                       # number of overall (read+write) accesses
system.cpu.icache.demand_miss_rate::.cpu.inst     0.200000                       # miss rate for demand accesses
system.cpu.icache.demand_miss_rate::.switch_cpus.inst     0.000000                       # miss rate for demand accesses
system.cpu.icache.demand_miss_rate::total     0.000000                       # miss rate for demand accesses
system.cpu.icache.overall_miss_rate::.cpu.inst     0.200000                       # miss rate for overall accesses
system.cpu.icache.overall_miss_rate::.switch_cpus.inst     0.000000                       # miss rate for overall accesses
system.cpu.icache.overall_miss_rate::total     0.000000                       # miss rate for overall accesses
system.cpu.icache.demand_avg_miss_latency::.switch_cpus.inst 78229.941176                       # average overall miss latency
system.cpu.icache.demand_avg_miss_latency::total 76591.617801                       # average overall miss latency
system.cpu.icache.overall_avg_miss_latency::.switch_cpus.inst 78229.941176                       # average overall miss latency
system.cpu.icache.overall_avg_miss_latency::total 76591.617801                       # average overall miss latency
system.cpu.icache.blocked_cycles::no_mshrs          184                       # number of cycles access was blocked
system.cpu.icache.blocked_cycles::no_targets            0                       # number of cycles access was blocked
system.cpu.icache.blocked::no_mshrs                 3                       # number of cycles access was blocked
system.cpu.icache.blocked::no_targets               0                       # number of cycles access was blocked
system.cpu.icache.avg_blocked_cycles::no_mshrs    61.333333                       # average number of cycles each access was blocked
system.cpu.icache.avg_blocked_cycles::no_targets          nan                       # average number of cycles each access was blocked
system.cpu.icache.ghost_timestamp_misses            0                       # number of times timestamp policy causes a block to be inaccessible
system.cpu.icache.ghost_commits                     0                       # number of cache lines moved from ghost to main
system.cpu.icache.same_leapfrogs                    0                       # number of times leapfrogging occurs with a shared MSHR request
system.cpu.icache.demand_mshr_hits::.switch_cpus.inst           30                       # number of demand (read+write) MSHR hits
system.cpu.icache.demand_mshr_hits::total           30                       # number of demand (read+write) MSHR hits
system.cpu.icache.overall_mshr_hits::.switch_cpus.inst           30                       # number of overall MSHR hits
system.cpu.icache.overall_mshr_hits::total           30                       # number of overall MSHR hits
system.cpu.icache.demand_mshr_misses::.switch_cpus.inst          157                       # number of demand (read+write) MSHR misses
system.cpu.icache.demand_mshr_misses::total          157                       # number of demand (read+write) MSHR misses
system.cpu.icache.overall_mshr_misses::.switch_cpus.inst          157                       # number of overall MSHR misses
system.cpu.icache.overall_mshr_misses::total          157                       # number of overall MSHR misses
system.cpu.icache.demand_mshr_miss_latency::.switch_cpus.inst     12400499                       # number of demand (read+write) MSHR miss cycles
system.cpu.icache.demand_mshr_miss_latency::total     12400499                       # number of demand (read+write) MSHR miss cycles
system.cpu.icache.overall_mshr_miss_latency::.switch_cpus.inst     12400499                       # number of overall MSHR miss cycles
system.cpu.icache.overall_mshr_miss_latency::total     12400499                       # number of overall MSHR miss cycles
system.cpu.icache.demand_mshr_miss_rate::.switch_cpus.inst     0.000000                       # mshr miss rate for demand accesses
system.cpu.icache.demand_mshr_miss_rate::total     0.000000                       # mshr miss rate for demand accesses
system.cpu.icache.overall_mshr_miss_rate::.switch_cpus.inst     0.000000                       # mshr miss rate for overall accesses
system.cpu.icache.overall_mshr_miss_rate::total     0.000000                       # mshr miss rate for overall accesses
system.cpu.icache.demand_avg_mshr_miss_latency::.switch_cpus.inst 78984.070064                       # average overall mshr miss latency
system.cpu.icache.demand_avg_mshr_miss_latency::total 78984.070064                       # average overall mshr miss latency
system.cpu.icache.overall_avg_mshr_miss_latency::.switch_cpus.inst 78984.070064                       # average overall mshr miss latency
system.cpu.icache.overall_avg_mshr_miss_latency::total 78984.070064                       # average overall mshr miss latency
system.cpu.icache.replacements                      0                       # number of replacements
system.cpu.icache.ReadReq_hits::.cpu.inst           16                       # number of ReadReq hits
system.cpu.icache.ReadReq_hits::.switch_cpus.inst    403266080                       # number of ReadReq hits
system.cpu.icache.ReadReq_hits::total       403266096                       # number of ReadReq hits
system.cpu.icache.ReadReq_misses::.cpu.inst            4                       # number of ReadReq misses
system.cpu.icache.ReadReq_misses::.switch_cpus.inst          187                       # number of ReadReq misses
system.cpu.icache.ReadReq_misses::total           191                       # number of ReadReq misses
system.cpu.icache.ReadReq_miss_latency::.switch_cpus.inst     14628999                       # number of ReadReq miss cycles
system.cpu.icache.ReadReq_miss_latency::total     14628999                       # number of ReadReq miss cycles
system.cpu.icache.ReadReq_accesses::.cpu.inst           20                       # number of ReadReq accesses(hits+misses)
system.cpu.icache.ReadReq_accesses::.switch_cpus.inst    403266267                       # number of ReadReq accesses(hits+misses)
system.cpu.icache.ReadReq_accesses::total    403266287                       # number of ReadReq accesses(hits+misses)
system.cpu.icache.ReadReq_miss_rate::.cpu.inst     0.200000                       # miss rate for ReadReq accesses
system.cpu.icache.ReadReq_miss_rate::.switch_cpus.inst     0.000000                       # miss rate for ReadReq accesses
system.cpu.icache.ReadReq_miss_rate::total     0.000000                       # miss rate for ReadReq accesses
system.cpu.icache.ReadReq_avg_miss_latency::.switch_cpus.inst 78229.941176                       # average ReadReq miss latency
system.cpu.icache.ReadReq_avg_miss_latency::total 76591.617801                       # average ReadReq miss latency
system.cpu.icache.ReadReq_mshr_hits::.switch_cpus.inst           30                       # number of ReadReq MSHR hits
system.cpu.icache.ReadReq_mshr_hits::total           30                       # number of ReadReq MSHR hits
system.cpu.icache.ReadReq_mshr_misses::.switch_cpus.inst          157                       # number of ReadReq MSHR misses
system.cpu.icache.ReadReq_mshr_misses::total          157                       # number of ReadReq MSHR misses
system.cpu.icache.ReadReq_mshr_miss_latency::.switch_cpus.inst     12400499                       # number of ReadReq MSHR miss cycles
system.cpu.icache.ReadReq_mshr_miss_latency::total     12400499                       # number of ReadReq MSHR miss cycles
system.cpu.icache.ReadReq_mshr_miss_rate::.switch_cpus.inst     0.000000                       # mshr miss rate for ReadReq accesses
system.cpu.icache.ReadReq_mshr_miss_rate::total     0.000000                       # mshr miss rate for ReadReq accesses
system.cpu.icache.ReadReq_avg_mshr_miss_latency::.switch_cpus.inst 78984.070064                       # average ReadReq mshr miss latency
system.cpu.icache.ReadReq_avg_mshr_miss_latency::total 78984.070064                       # average ReadReq mshr miss latency
system.cpu.icache.ghosttags.tagsinuse               0                       # Cycle average of tags in use
system.cpu.icache.ghosttags.total_refs              0                       # Total number of references to valid blocks.
system.cpu.icache.ghosttags.sampled_refs            0                       # Sample count of references to valid blocks.
system.cpu.icache.ghosttags.avg_refs              nan                       # Average number of references to valid blocks.
system.cpu.icache.ghosttags.warmup_cycle            0                       # Cycle when the warmup percentage was hit.
system.cpu.icache.ghosttags.tag_accesses            0                       # Number of tag accesses
system.cpu.icache.ghosttags.data_accesses            0                       # Number of data accesses
system.cpu.icache.ghosttags.repl_invalid            0                       # Number of initial replacements
system.cpu.icache.ghosttags.repl_valid_tag            0                       # Number of local replacements
system.cpu.icache.ghosttags.repl_valid_data            0                       # Number of global replacements
system.cpu.icache.ghosttags.power_state.pwrStateResidencyTicks::UNDEFINED 6143756485500                       # Cumulative time (in ticks) in various power states
system.cpu.icache.power_state.pwrStateResidencyTicks::UNDEFINED 6143756485500                       # Cumulative time (in ticks) in various power states
system.cpu.icache.tags.tagsinuse           146.668334                       # Cycle average of tags in use
system.cpu.icache.tags.total_refs           403266257                       # Total number of references to valid blocks.
system.cpu.icache.tags.sampled_refs               161                       # Sample count of references to valid blocks.
system.cpu.icache.tags.avg_refs          2504759.360248                       # Average number of references to valid blocks.
system.cpu.icache.tags.warmup_cycle      5548516518500                       # Cycle when the warmup percentage was hit.
system.cpu.icache.tags.occ_blocks::.cpu.inst     4.000000                       # Average occupied blocks per requestor
system.cpu.icache.tags.occ_blocks::.switch_cpus.inst   142.668334                       # Average occupied blocks per requestor
system.cpu.icache.tags.occ_percent::.cpu.inst     0.007812                       # Average percentage of cache occupancy
system.cpu.icache.tags.occ_percent::.switch_cpus.inst     0.278649                       # Average percentage of cache occupancy
system.cpu.icache.tags.occ_percent::total     0.286462                       # Average percentage of cache occupancy
system.cpu.icache.tags.occ_task_id_blocks::1024          161                       # Occupied blocks per task id
system.cpu.icache.tags.age_task_id_blocks_1024::4          161                       # Occupied blocks per task id
system.cpu.icache.tags.occ_task_id_percent::1024     0.314453                       # Percentage of cache occupancy per task id
system.cpu.icache.tags.tag_accesses        3226130457                       # Number of tag accesses
system.cpu.icache.tags.data_accesses       3226130457                       # Number of data accesses
system.cpu.icache.tags.repl_invalid                 0                       # Number of initial replacements
system.cpu.icache.tags.repl_valid_tag               0                       # Number of local replacements
system.cpu.icache.tags.repl_valid_data              0                       # Number of global replacements
system.cpu.icache.tags.power_state.pwrStateResidencyTicks::UNDEFINED 6143756485500                       # Cumulative time (in ticks) in various power states
system.cpu.itb.instHits                             0                       # ITB inst hits
system.cpu.itb.instMisses                           0                       # ITB inst misses
system.cpu.itb.readHits                             0                       # DTB read hits
system.cpu.itb.readMisses                           0                       # DTB read misses
system.cpu.itb.writeHits                            0                       # DTB write hits
system.cpu.itb.writeMisses                          0                       # DTB write misses
system.cpu.itb.inserts                              0                       # Number of times an entry is inserted into the TLB
system.cpu.itb.flushTlb                             2                       # Number of times complete TLB was flushed
system.cpu.itb.flushTlbMva                          0                       # Number of times TLB was flushed by MVA
system.cpu.itb.flushTlbMvaAsid                      0                       # Number of times TLB was flushed by MVA & ASID
system.cpu.itb.flushTlbAsid                         0                       # Number of times TLB was flushed by ASID
system.cpu.itb.flushedEntries                       0                       # Number of entries that have been flushed from TLB
system.cpu.itb.alignFaults                          0                       # Number of TLB faults due to alignment restrictions
system.cpu.itb.prefetchFaults                       0                       # Number of TLB faults due to prefetch
system.cpu.itb.domainFaults                         0                       # Number of TLB faults due to domain restrictions
system.cpu.itb.permsFaults                          0                       # Number of TLB faults due to permissions restrictions
system.cpu.itb.readAccesses                         0                       # DTB read accesses
system.cpu.itb.writeAccesses                        0                       # DTB write accesses
system.cpu.itb.instAccesses                         0                       # ITB inst accesses
system.cpu.itb.hits                                 0                       # Total TLB (inst and data) hits
system.cpu.itb.misses                               0                       # Total TLB (inst and data) misses
system.cpu.itb.accesses                             0                       # Total TLB (inst and data) accesses
system.cpu.itb.stage2_mmu.stage2_tlb.instHits            0                       # ITB inst hits
system.cpu.itb.stage2_mmu.stage2_tlb.instMisses            0                       # ITB inst misses
system.cpu.itb.stage2_mmu.stage2_tlb.readHits            0                       # DTB read hits
system.cpu.itb.stage2_mmu.stage2_tlb.readMisses            0                       # DTB read misses
system.cpu.itb.stage2_mmu.stage2_tlb.writeHits            0                       # DTB write hits
system.cpu.itb.stage2_mmu.stage2_tlb.writeMisses            0                       # DTB write misses
system.cpu.itb.stage2_mmu.stage2_tlb.inserts            0                       # Number of times an entry is inserted into the TLB
system.cpu.itb.stage2_mmu.stage2_tlb.flushTlb            0                       # Number of times complete TLB was flushed
system.cpu.itb.stage2_mmu.stage2_tlb.flushTlbMva            0                       # Number of times TLB was flushed by MVA
system.cpu.itb.stage2_mmu.stage2_tlb.flushTlbMvaAsid            0                       # Number of times TLB was flushed by MVA & ASID
system.cpu.itb.stage2_mmu.stage2_tlb.flushTlbAsid            0                       # Number of times TLB was flushed by ASID
system.cpu.itb.stage2_mmu.stage2_tlb.flushedEntries            0                       # Number of entries that have been flushed from TLB
system.cpu.itb.stage2_mmu.stage2_tlb.alignFaults            0                       # Number of TLB faults due to alignment restrictions
system.cpu.itb.stage2_mmu.stage2_tlb.prefetchFaults            0                       # Number of TLB faults due to prefetch
system.cpu.itb.stage2_mmu.stage2_tlb.domainFaults            0                       # Number of TLB faults due to domain restrictions
system.cpu.itb.stage2_mmu.stage2_tlb.permsFaults            0                       # Number of TLB faults due to permissions restrictions
system.cpu.itb.stage2_mmu.stage2_tlb.readAccesses            0                       # DTB read accesses
system.cpu.itb.stage2_mmu.stage2_tlb.writeAccesses            0                       # DTB write accesses
system.cpu.itb.stage2_mmu.stage2_tlb.instAccesses            0                       # ITB inst accesses
system.cpu.itb.stage2_mmu.stage2_tlb.hits            0                       # Total TLB (inst and data) hits
system.cpu.itb.stage2_mmu.stage2_tlb.misses            0                       # Total TLB (inst and data) misses
[...]
system.switch_cpus.fetch.branches           523906949                       # Number of branches that fetch encountered
system.switch_cpus.fetch.predictedBranches    294557137                       # Number of branches that fetch has predicted taken
system.switch_cpus.fetch.cycles             750470518                       # Number of cycles fetch has run and was not squashing or blocked
system.switch_cpus.fetch.squashCycles        58100072                       # Number of cycles fetch has spent squashing
system.switch_cpus.fetch.miscStallCycles           88                       # Number of cycles fetch has spent waiting on interrupts,or bad addresses, or out of MSHRs
system.switch_cpus.fetch.pendingTrapStallCycles          758                       # Number of stall cycles due to pending traps
system.switch_cpus.fetch.icacheWaitRetryStallCycles           21                       # Number of stall cycles due to full MSHR
system.switch_cpus.fetch.cacheLines         403266267                       # Number of cache lines fetched
system.switch_cpus.fetch.icacheSquashes       5586694                       # Number of outstanding Icache misses that were squashed
system.switch_cpus.fetch.nisnDist::samples   1190468150                       # Number of instructions fetched each cycle (Total)
system.switch_cpus.fetch.nisnDist::mean      2.830764                       # Number of instructions fetched each cycle (Total)
system.switch_cpus.fetch.nisnDist::stdev     3.113924                       # Number of instructions fetched each cycle (Total)
system.switch_cpus.fetch.nisnDist::underflows            0      0.00%      0.00% # Number of instructions fetched each cycle (Total)
system.switch_cpus.fetch.nisnDist::0        525427743     44.14%     44.14% # Number of instructions fetched each cycle (Total)
system.switch_cpus.fetch.nisnDist::1         37185468      3.12%     47.26% # Number of instructions fetched each cycle (Total)
system.switch_cpus.fetch.nisnDist::2         79463686      6.67%     53.93% # Number of instructions fetched each cycle (Total)
system.switch_cpus.fetch.nisnDist::3         97019136      8.15%     62.08% # Number of instructions fetched each cycle (Total)
system.switch_cpus.fetch.nisnDist::4        138212671     11.61%     73.69% # Number of instructions fetched each cycle (Total)
system.switch_cpus.fetch.nisnDist::5         28113631      2.36%     76.06% # Number of instructions fetched each cycle (Total)
system.switch_cpus.fetch.nisnDist::6         31408888      2.64%     78.69% # Number of instructions fetched each cycle (Total)
system.switch_cpus.fetch.nisnDist::7         28203449      2.37%     81.06% # Number of instructions fetched each cycle (Total)
system.switch_cpus.fetch.nisnDist::8        225433478     18.94%    100.00% # Number of instructions fetched each cycle (Total)
system.switch_cpus.fetch.nisnDist::overflows            0      0.00%    100.00% # Number of instructions fetched each cycle (Total)
system.switch_cpus.fetch.nisnDist::min_value            0                       # Number of instructions fetched each cycle (Total)
system.switch_cpus.fetch.nisnDist::max_value            8                       # Number of instructions fetched each cycle (Total)
system.switch_cpus.fetch.nisnDist::total   1190468150                       # Number of instructions fetched each cycle (Total)
system.switch_cpus.fetch.branchRate          0.440080                       # Number of branch fetches per cycle
system.switch_cpus.fetch.rate                2.623152                       # Number of inst fetches per cycle
system.switch_cpus.itb.instHits                     0                       # ITB inst hits
system.switch_cpus.itb.instMisses                   0                       # ITB inst misses
system.switch_cpus.itb.readHits                     0                       # DTB read hits
system.switch_cpus.itb.readMisses                   0                       # DTB read misses
system.switch_cpus.itb.writeHits                    0                       # DTB write hits
system.switch_cpus.itb.writeMisses                  0                       # DTB write misses
system.switch_cpus.itb.inserts                      0                       # Number of times an entry is inserted into the TLB
system.switch_cpus.itb.flushTlb                     0                       # Number of times complete TLB was flushed
system.switch_cpus.itb.flushTlbMva                  0                       # Number of times TLB was flushed by MVA
system.switch_cpus.itb.flushTlbMvaAsid              0                       # Number of times TLB was flushed by MVA & ASID
system.switch_cpus.itb.flushTlbAsid                 0                       # Number of times TLB was flushed by ASID
system.switch_cpus.itb.flushedEntries               0                       # Number of entries that have been flushed from TLB
system.switch_cpus.itb.alignFaults                  0                       # Number of TLB faults due to alignment restrictions
system.switch_cpus.itb.prefetchFaults               0                       # Number of TLB faults due to prefetch
system.switch_cpus.itb.domainFaults                 0                       # Number of TLB faults due to domain restrictions
system.switch_cpus.itb.permsFaults                  0                       # Number of TLB faults due to permissions restrictions
system.switch_cpus.itb.readAccesses                 0                       # DTB read accesses
system.switch_cpus.itb.writeAccesses                0                       # DTB write accesses
system.switch_cpus.itb.instAccesses                 0                       # ITB inst accesses
system.switch_cpus.itb.hits                         0                       # Total TLB (inst and data) hits
system.switch_cpus.itb.misses                       0                       # Total TLB (inst and data) misses
system.switch_cpus.itb.accesses                     0                       # Total TLB (inst and data) accesses
system.switch_cpus.itb.stage2_mmu.stage2_tlb.instHits            0                       # ITB inst hits
system.switch_cpus.itb.stage2_mmu.stage2_tlb.instMisses            0                       # ITB inst misses
system.switch_cpus.itb.stage2_mmu.stage2_tlb.readHits            0                       # DTB read hits
system.switch_cpus.itb.stage2_mmu.stage2_tlb.readMisses            0                       # DTB read misses
system.switch_cpus.itb.stage2_mmu.stage2_tlb.writeHits            0                       # DTB write hits
system.switch_cpus.itb.stage2_mmu.stage2_tlb.writeMisses            0                       # DTB write misses
system.switch_cpus.itb.stage2_mmu.stage2_tlb.inserts            0                       # Number of times an entry is inserted into the TLB
system.switch_cpus.itb.stage2_mmu.stage2_tlb.flushTlb            0                       # Number of times complete TLB was flushed
system.switch_cpus.itb.stage2_mmu.stage2_tlb.flushTlbMva            0                       # Number of times TLB was flushed by MVA
system.switch_cpus.itb.stage2_mmu.stage2_tlb.flushTlbMvaAsid            0                       # Number of times TLB was flushed by MVA & ASID
system.switch_cpus.itb.stage2_mmu.stage2_tlb.flushTlbAsid            0                       # Number of times TLB was flushed by ASID
system.switch_cpus.itb.stage2_mmu.stage2_tlb.flushedEntries            0                       # Number of entries that have been flushed from TLB
system.switch_cpus.itb.stage2_mmu.stage2_tlb.alignFaults            0                       # Number of TLB faults due to alignment restrictions
system.switch_cpus.itb.stage2_mmu.stage2_tlb.prefetchFaults            0                       # Number of TLB faults due to prefetch
system.switch_cpus.itb.stage2_mmu.stage2_tlb.domainFaults            0                       # Number of TLB faults due to domain restrictions
system.switch_cpus.itb.stage2_mmu.stage2_tlb.permsFaults            0                       # Number of TLB faults due to permissions restrictions
system.switch_cpus.itb.stage2_mmu.stage2_tlb.readAccesses            0                       # DTB read accesses
system.switch_cpus.itb.stage2_mmu.stage2_tlb.writeAccesses            0                       # DTB write accesses
system.switch_cpus.itb.stage2_mmu.stage2_tlb.instAccesses            0                       # ITB inst accesses
system.switch_cpus.itb.stage2_mmu.stage2_tlb.hits            0                       # Total TLB (inst and data) hits
system.switch_cpus.itb.stage2_mmu.stage2_tlb.misses            0                       # Total TLB (inst and data) misses
system.switch_cpus.itb.stage2_mmu.stage2_tlb.accesses            0                       # Total TLB (inst and data) accesses
system.switch_cpus.itb.stage2_mmu.stage2_tlb.walker.walks            0                       # Table walker walks requested
system.switch_cpus.itb.stage2_mmu.stage2_tlb.walker.requestOrigin_Requested::Data            0                       # Table walker requests started/completed, data/inst
system.switch_cpus.itb.stage2_mmu.stage2_tlb.walker.requestOrigin_Requested::Inst            0                       # Table walker requests started/completed, data/inst
system.switch_cpus.itb.stage2_mmu.stage2_tlb.walker.requestOrigin_Requested::total            0                       # Table walker requests started/completed, data/inst
system.switch_cpus.itb.stage2_mmu.stage2_tlb.walker.requestOrigin_Completed::Data            0                       # Table walker requests started/completed, data/inst
system.switch_cpus.itb.stage2_mmu.stage2_tlb.walker.requestOrigin_Completed::Inst            0                       # Table walker requests started/completed, data/inst
system.switch_cpus.itb.stage2_mmu.stage2_tlb.walker.requestOrigin_Completed::total            0                       # Table walker requests started/completed, data/inst
system.switch_cpus.itb.stage2_mmu.stage2_tlb.walker.requestOrigin::total            0                       # Table walker requests started/completed, data/inst
system.switch_cpus.itb.stage2_mmu.stage2_tlb.walker.power_state.pwrStateResidencyTicks::UNDEFINED 6143756485500                       # Cumulative time (in ticks) in various power states
system.switch_cpus.itb.walker.walks                 0                       # Table walker walks requested
system.switch_cpus.itb.walker.requestOrigin_Requested::Data            0                       # Table walker requests started/completed, data/inst
system.switch_cpus.itb.walker.requestOrigin_Requested::Inst            0                       # Table walker requests started/completed, data/inst
system.switch_cpus.itb.walker.requestOrigin_Requested::total            0                       # Table walker requests started/completed, data/inst
system.switch_cpus.itb.walker.requestOrigin_Completed::Data            0                       # Table walker requests started/completed, data/inst
system.switch_cpus.itb.walker.requestOrigin_Completed::Inst            0                       # Table walker requests started/completed, data/inst
system.switch_cpus.itb.walker.requestOrigin_Completed::total            0                       # Table walker requests started/completed, data/inst
system.switch_cpus.itb.walker.requestOrigin::total            0                       # Table walker requests started/completed, data/inst
system.switch_cpus.itb.walker.power_state.pwrStateResidencyTicks::UNDEFINED 6143756485500                       # Cumulative time (in ticks) in various power states
system.switch_cpus.lsq0.forwLoads            33782956                       # Number of loads that had data forwarded from stores
system.switch_cpus.lsq0.squashedLoads       138609864                       # Number of loads squashed
system.switch_cpus.lsq0.ignoredResponses       120086                       # Number of memory responses ignored because the instruction is squashed
system.switch_cpus.lsq0.memOrderViolation        20764                       # Number of memory ordering violations
system.switch_cpus.lsq0.squashedStores       61141311                       # Number of stores squashed
system.switch_cpus.lsq0.rescheduledLoads     30045834                       # Number of loads that were rescheduled
system.switch_cpus.lsq0.blockedByCache          66538                       # Number of times an access to memory failed due to the cache being blocked
system.switch_cpus.power_state.pwrStateResidencyTicks::OFF 595239967500                       # Cumulative time (in ticks) in various power states
system.switch_cpus.rename.squashCycles       29049955                       # Number of cycles rename is squashing
system.switch_cpus.rename.idleCycles        346822569                       # Number of cycles rename is idle
system.switch_cpus.rename.blockCycles       122155855                       # Number of cycles rename is blocking
system.switch_cpus.rename.serializeStallCycles       149040                       # count of cycles rename stalledfor serializing inst
system.switch_cpus.rename.runCycles         552089011                       # Number of cycles rename is running
system.switch_cpus.rename.unblockCycles     140201717                       # Number of cycles rename is unblocking
system.switch_cpus.rename.renamedInsts     3171058968                       # Number of instructions processed by rename
system.switch_cpus.rename.ROBFullEvents         80920                       # Number of times rename has blocked due to ROB full
system.switch_cpus.rename.IQFullEvents        3231243                       # Number of times rename has blocked due to IQ full
system.switch_cpus.rename.LQFullEvents       53398531                       # Number of times rename has blocked due to LQ full
system.switch_cpus.rename.SQFullEvents       67168773                       # Number of times rename has blocked due to SQ full
system.switch_cpus.rename.renamedOperands   3719485053                       # Number of destination operands rename has renamed
system.switch_cpus.rename.lookups          6611795092                       # Number of register rename lookups that rename has made
system.switch_cpus.rename.intLookups       4132923921                       # Number of integer rename lookups
system.switch_cpus.rename.vecLookups        437722897                       # Number of vector rename lookups
system.switch_cpus.rename.committedMaps    2529400890                       # Number of HB maps that are committed
system.switch_cpus.rename.undoneMaps       1190084116                       # Number of HB maps that are undone due to squashing
system.switch_cpus.rename.serializing            3140                       # count of serializing insts renamed
system.switch_cpus.rename.tempSerializing           60                       # count of temporary serializing insts renamed
system.switch_cpus.rename.skidInsts         177533828                       # count of insts added to the skid buffer
system.switch_cpus.rob.reads               3914385768                       # The number of ROB reads
system.switch_cpus.rob.writes              6088576515                       # The number of ROB writes
system.switch_cpus.thread0.numInsts        2000000004                       # Number of Instructions committed
system.switch_cpus.thread0.numOps          2183267834                       # Number of Ops committed
system.switch_cpus.thread0.numMemRefs               0                       # Number of Memory References
system.tol2bus.trans_dist::ReadResp          14599991                       # Transaction distribution
system.tol2bus.trans_dist::WritebackDirty      1296150                       # Transaction distribution
system.tol2bus.trans_dist::WritebackClean     14159782                       # Transaction distribution
system.tol2bus.trans_dist::CleanEvict           13197                       # Transaction distribution
system.tol2bus.trans_dist::HardPFReq           373124                       # Transaction distribution
system.tol2bus.trans_dist::ReadExReq           670760                       # Transaction distribution
system.tol2bus.trans_dist::ReadExResp          670760                       # Transaction distribution
system.tol2bus.trans_dist::ReadCleanReq           161                       # Transaction distribution
system.tol2bus.trans_dist::ReadSharedReq     14599830                       # Transaction distribution
system.tol2bus.trans_dist::InvalidateReq         2104                       # Transaction distribution
system.tol2bus.trans_dist::InvalidateResp         2104                       # Transaction distribution
system.tol2bus.pkt_count_system.cpu.icache.mem_side_port::system.l2.cpu_side_port          322                       # Packet count per connected requestor and responder (bytes)
system.tol2bus.pkt_count_system.cpu.dcache.mem_side_port::system.l2.cpu_side_port     45817570                       # Packet count per connected requestor and responder (bytes)
system.tol2bus.pkt_count::total              45817892                       # Packet count per connected requestor and responder (bytes)
system.tol2bus.pkt_size_system.cpu.icache.mem_side_port::system.l2.cpu_side_port        10304                       # Cumulative packet size per connected requestor and responder (bytes)
system.tol2bus.pkt_size_system.cpu.dcache.mem_side_port::system.l2.cpu_side_port   1954737408                       # Cumulative packet size per connected requestor and responder (bytes)
system.tol2bus.pkt_size::total             1954747712                       # Cumulative packet size per connected requestor and responder (bytes)
system.tol2bus.snoops                          570071                       # Total snoops (count)
system.tol2bus.snoopTraffic                  11760000                       # Total snoop traffic (bytes)
system.tol2bus.snoop_fanout::samples         15842926                       # Request fanout histogram
system.tol2bus.snoop_fanout::mean            0.000016                       # Request fanout histogram
system.tol2bus.snoop_fanout::stdev           0.004028                       # Request fanout histogram
system.tol2bus.snoop_fanout::underflows             0      0.00%      0.00% # Request fanout histogram
system.tol2bus.snoop_fanout::0               15842669    100.00%    100.00% # Request fanout histogram
system.tol2bus.snoop_fanout::1                    257      0.00%    100.00% # Request fanout histogram
system.tol2bus.snoop_fanout::2                      0      0.00%    100.00% # Request fanout histogram
system.tol2bus.snoop_fanout::overflows              0      0.00%    100.00% # Request fanout histogram
system.tol2bus.snoop_fanout::min_value              0                       # Request fanout histogram
system.tol2bus.snoop_fanout::max_value              1                       # Request fanout histogram
system.tol2bus.snoop_fanout::total           15842926                       # Request fanout histogram
system.tol2bus.power_state.pwrStateResidencyTicks::UNDEFINED 6143756485500                       # Cumulative time (in ticks) in various power states
system.tol2bus.reqLayer0.occupancy        30544697000                       # Layer occupancy (ticks)
system.tol2bus.reqLayer0.utilization              5.1                       # Layer utilization (%)
system.tol2bus.respLayer0.occupancy            235999                       # Layer occupancy (ticks)
system.tol2bus.respLayer0.utilization             0.0                       # Layer utilization (%)
system.tol2bus.respLayer1.occupancy       22906932500                       # Layer occupancy (ticks)
system.tol2bus.respLayer1.utilization             3.8                       # Layer utilization (%)
system.voltage_domain.voltage                       1                       # Voltage in Volts

---------- End Simulation Statistics   ----------
