
---------- Begin Simulation Statistics ----------
simSeconds                                   0.844139                       # Number of seconds simulated (Second)
simTicks                                 844139432000                       # Number of ticks simulated (Tick)
finalTick                                844139432000                       # Number of ticks from beginning of simulation (restored from checkpoints and never reset) (Tick)
simFreq                                  1000000000000                       # The number of ticks per simulated second ((Tick/Second))
hostSeconds                                   6115.23                       # Real time elapsed on the host (Second)
hostTickRate                                138038840                       # The number of ticks simulated per host second (ticks/s) ((Tick/Second))
hostMemory                                    8680884                       # Number of bytes of host memory used (Byte)
simInsts                                    500000000                       # Number of instructions simulated (Count)
simOps                                      505009725                       # Number of ops (including micro ops) simulated (Count)
hostInstRate                                    81763                       # Simulator instruction rate (inst/s) ((Count/Second))
hostOpRate                                      82582                       # Simulator op (including micro ops) rate (op/s) ((Count/Second))
system.clk_domain.clock                          1000                       # Clock period in ticks (Tick)
system.cpu.numCycles                       1688278877                       # Number of cpu cycles simulated (Cycle)
system.cpu.cpi                               3.365849                       # CPI: cycles per instruction (core level) ((Cycle/Count))
system.cpu.ipc                               0.297102                       # IPC: instructions per cycle (core level) ((Count/Cycle))
system.cpu.numWorkItemsStarted                      0                       # Number of work items this cpu started (Count)
system.cpu.numWorkItemsCompleted                    0                       # Number of work items this cpu completed (Count)
system.cpu.instsAdded                       532960390                       # Number of instructions added to the IQ (excludes non-spec) (Count)
system.cpu.nonSpecInstsAdded                   256942                       # Number of non-speculative instructions added to the IQ (Count)
system.cpu.instsIssued                     1014037538                       # Number of instructions issued (Count)
system.cpu.squashedInstsIssued                  41704                       # Number of squashed instructions issued (Count)
system.cpu.squashedInstsExamined             28207589                       # Number of squashed instructions iterated over during squash; mainly for profiling (Count)
system.cpu.squashedOperandsExamined          11998977                       # Number of squashed operands that are examined and possibly removed from graph (Count)
system.cpu.squashedNonSpecRemoved               27468                       # Number of squashed non-spec instructions that were removed (Count)
system.cpu.numIssuedDist::samples          1687129712                       # Number of insts issued each cycle (Count)
system.cpu.numIssuedDist::mean               0.601043                       # Number of insts issued each cycle (Count)
system.cpu.numIssuedDist::stdev              1.572512                       # Number of insts issued each cycle (Count)
system.cpu.numIssuedDist::underflows                0      0.00%      0.00% # Number of insts issued each cycle (Count)
system.cpu.numIssuedDist::0                1428673680     84.68%     84.68% # Number of insts issued each cycle (Count)
system.cpu.numIssuedDist::1                  27523873      1.63%     86.31% # Number of insts issued each cycle (Count)
system.cpu.numIssuedDist::2                  27467038      1.63%     87.94% # Number of insts issued each cycle (Count)
system.cpu.numIssuedDist::3                  17353628      1.03%     88.97% # Number of insts issued each cycle (Count)
system.cpu.numIssuedDist::4                 131700495      7.81%     96.77% # Number of insts issued each cycle (Count)
system.cpu.numIssuedDist::5                  20777789      1.23%     98.01% # Number of insts issued each cycle (Count)
system.cpu.numIssuedDist::6                   6110127      0.36%     98.37% # Number of insts issued each cycle (Count)
system.cpu.numIssuedDist::7                   8017638      0.48%     98.84% # Number of insts issued each cycle (Count)
system.cpu.numIssuedDist::8                  19505444      1.16%    100.00% # Number of insts issued each cycle (Count)
system.cpu.numIssuedDist::overflows                 0      0.00%    100.00% # Number of insts issued each cycle (Count)
system.cpu.numIssuedDist::min_value                 0                       # Number of insts issued each cycle (Count)
system.cpu.numIssuedDist::max_value                 8                       # Number of insts issued each cycle (Count)
system.cpu.numIssuedDist::total            1687129712                       # Number of insts issued each cycle (Count)
system.cpu.statFuBusy::No_OpClass                   0      0.00%      0.00% # attempts to use FU when none available (Count)
system.cpu.statFuBusy::IntAlu                  429614      0.34%      0.34% # attempts to use FU when none available (Count)
system.cpu.statFuBusy::IntMult                1161693      0.92%      1.26% # attempts to use FU when none available (Count)
system.cpu.statFuBusy::IntDiv                     575      0.00%      1.26% # attempts to use FU when none available (Count)
system.cpu.statFuBusy::FloatAdd                     0      0.00%      1.26% # attempts to use FU when none available (Count)
system.cpu.statFuBusy::FloatCmp                     0      0.00%      1.26% # attempts to use FU when none available (Count)
system.cpu.statFuBusy::FloatCvt                     0      0.00%      1.26% # attempts to use FU when none available (Count)
system.cpu.statFuBusy::FloatMult                    1      0.00%      1.26% # attempts to use FU when none available (Count)
system.cpu.statFuBusy::FloatMultAcc                 1      0.00%      1.26% # attempts to use FU when none available (Count)
system.cpu.statFuBusy::FloatDiv                     0      0.00%      1.26% # attempts to use FU when none available (Count)
system.cpu.statFuBusy::FloatMisc                    3      0.00%      1.26% # attempts to use FU when none available (Count)
system.cpu.statFuBusy::FloatSqrt                    0      0.00%      1.26% # attempts to use FU when none available (Count)
system.cpu.statFuBusy::SimdAdd                      0      0.00%      1.26% # attempts to use FU when none available (Count)
system.cpu.statFuBusy::SimdAddAcc                   0      0.00%      1.26% # attempts to use FU when none available (Count)
system.cpu.statFuBusy::SimdAlu                      0      0.00%      1.26% # attempts to use FU when none available (Count)
system.cpu.statFuBusy::SimdCmp                      0      0.00%      1.26% # attempts to use FU when none available (Count)
system.cpu.statFuBusy::SimdCvt                      0      0.00%      1.26% # attempts to use FU when none available (Count)
system.cpu.statFuBusy::SimdMisc                     0      0.00%      1.26% # attempts to use FU when none available (Count)
system.cpu.statFuBusy::SimdMult                     0      0.00%      1.26% # attempts to use FU when none available (Count)
system.cpu.statFuBusy::SimdMultAcc                  0      0.00%      1.26% # attempts to use FU when none available (Count)
system.cpu.statFuBusy::SimdMatMultAcc               0      0.00%      1.26% # attempts to use FU when none available (Count)
system.cpu.statFuBusy::SimdShift                    0      0.00%      1.26% # attempts to use FU when none available (Count)
system.cpu.statFuBusy::SimdShiftAcc                 0      0.00%      1.26% # attempts to use FU when none available (Count)
system.cpu.statFuBusy::SimdDiv                      0      0.00%      1.26% # attempts to use FU when none available (Count)
system.cpu.statFuBusy::SimdSqrt                     0      0.00%      1.26% # attempts to use FU when none available (Count)
system.cpu.statFuBusy::SimdFloatAdd                 0      0.00%      1.26% # attempts to use FU when none available (Count)
system.cpu.statFuBusy::SimdFloatAlu                 0      0.00%      1.26% # attempts to use FU when none available (Count)
system.cpu.statFuBusy::SimdFloatCmp                 0      0.00%      1.26% # attempts to use FU when none available (Count)
system.cpu.statFuBusy::SimdFloatCvt                 0      0.00%      1.26% # attempts to use FU when none available (Count)
system.cpu.statFuBusy::SimdFloatDiv                 0      0.00%      1.26% # attempts to use FU when none available (Count)
system.cpu.statFuBusy::SimdFloatMisc                0      0.00%      1.26% # attempts to use FU when none available (Count)
system.cpu.statFuBusy::SimdFloatMult                0      0.00%      1.26% # attempts to use FU when none available (Count)
system.cpu.statFuBusy::SimdFloatMultAcc             0      0.00%      1.26% # attempts to use FU when none available (Count)
system.cpu.statFuBusy::SimdFloatMatMultAcc            0      0.00%      1.26% # attempts to use FU when none available (Count)
system.cpu.statFuBusy::SimdFloatSqrt                0      0.00%      1.26% # attempts to use FU when none available (Count)
system.cpu.statFuBusy::SimdReduceAdd                0      0.00%      1.26% # attempts to use FU when none available (Count)
system.cpu.statFuBusy::SimdReduceAlu                0      0.00%      1.26% # attempts to use FU when none available (Count)
system.cpu.statFuBusy::SimdReduceCmp                0      0.00%      1.26% # attempts to use FU when none available (Count)
system.cpu.statFuBusy::SimdFloatReduceAdd            0      0.00%      1.26% # attempts to use FU when none available (Count)
system.cpu.statFuBusy::SimdFloatReduceCmp            0      0.00%      1.26% # attempts to use FU when none available (Count)
system.cpu.statFuBusy::SimdAes                      0      0.00%      1.26% # attempts to use FU when none available (Count)
system.cpu.statFuBusy::SimdAesMix                   0      0.00%      1.26% # attempts to use FU when none available (Count)
system.cpu.statFuBusy::SimdSha1Hash                 0      0.00%      1.26% # attempts to use FU when none available (Count)
system.cpu.statFuBusy::SimdSha1Hash2                0      0.00%      1.26% # attempts to use FU when none available (Count)
system.cpu.statFuBusy::SimdSha256Hash               0      0.00%      1.26% # attempts to use FU when none available (Count)
system.cpu.statFuBusy::SimdSha256Hash2              0      0.00%      1.26% # attempts to use FU when none available (Count)
system.cpu.statFuBusy::SimdShaSigma2                0      0.00%      1.26% # attempts to use FU when none available (Count)
system.cpu.statFuBusy::SimdShaSigma3                0      0.00%      1.26% # attempts to use FU when none available (Count)
system.cpu.statFuBusy::SimdPredAlu                  0      0.00%      1.26% # attempts to use FU when none available (Count)
system.cpu.statFuBusy::Matrix                       0      0.00%      1.26% # attempts to use FU when none available (Count)
system.cpu.statFuBusy::MatrixMov                    0      0.00%      1.26% # attempts to use FU when none available (Count)
system.cpu.statFuBusy::MatrixOP                     0      0.00%      1.26% # attempts to use FU when none available (Count)
system.cpu.statFuBusy::MemRead              117335381     92.92%     94.18% # attempts to use FU when none available (Count)
system.cpu.statFuBusy::MemWrite               7348700      5.82%    100.00% # attempts to use FU when none available (Count)
system.cpu.statFuBusy::FloatMemRead                 0      0.00%    100.00% # attempts to use FU when none available (Count)
system.cpu.statFuBusy::FloatMemWrite                0      0.00%    100.00% # attempts to use FU when none available (Count)
system.cpu.statFuBusy::IprAccess                    0      0.00%    100.00% # attempts to use FU when none available (Count)
system.cpu.statFuBusy::InstPrefetch                 0      0.00%    100.00% # attempts to use FU when none available (Count)
system.cpu.statFuBusy::SimdUnitStrideLoad            0      0.00%    100.00% # attempts to use FU when none available (Count)
system.cpu.statFuBusy::SimdUnitStrideStore            0      0.00%    100.00% # attempts to use FU when none available (Count)
system.cpu.statFuBusy::SimdUnitStrideMaskLoad            0      0.00%    100.00% # attempts to use FU when none available (Count)
system.cpu.statFuBusy::SimdUnitStrideMaskStore            0      0.00%    100.00% # attempts to use FU when none available (Count)
system.cpu.statFuBusy::SimdStridedLoad              0      0.00%    100.00% # attempts to use FU when none available (Count)
system.cpu.statFuBusy::SimdStridedStore             0      0.00%    100.00% # attempts to use FU when none available (Count)
system.cpu.statFuBusy::SimdIndexedLoad              0      0.00%    100.00% # attempts to use FU when none available (Count)
system.cpu.statFuBusy::SimdIndexedStore             0      0.00%    100.00% # attempts to use FU when none available (Count)
system.cpu.statFuBusy::SimdWholeRegisterLoad            0      0.00%    100.00% # attempts to use FU when none available (Count)
system.cpu.statFuBusy::SimdWholeRegisterStore            0      0.00%    100.00% # attempts to use FU when none available (Count)
system.cpu.statFuBusy::SimdUnitStrideFaultOnlyFirstLoad            0      0.00%    100.00% # attempts to use FU when none available (Count)
system.cpu.statFuBusy::SimdUnitStrideSegmentedLoad            0      0.00%    100.00% # attempts to use FU when none available (Count)
system.cpu.statFuBusy::SimdUnitStrideSegmentedStore            0      0.00%    100.00% # attempts to use FU when none available (Count)
system.cpu.statFuBusy::SimdExt                      0      0.00%    100.00% # attempts to use FU when none available (Count)
system.cpu.statFuBusy::SimdFloatExt                 0      0.00%    100.00% # attempts to use FU when none available (Count)
system.cpu.statFuBusy::SimdConfig                   0      0.00%    100.00% # attempts to use FU when none available (Count)
system.cpu.statIssuedInstType_0::No_OpClass       228816      0.02%      0.02% # Number of instructions issued per FU type, per thread (Count)
system.cpu.statIssuedInstType_0::IntAlu     282611875     27.87%     27.89% # Number of instructions issued per FU type, per thread (Count)
system.cpu.statIssuedInstType_0::IntMult     14459445      1.43%     29.32% # Number of instructions issued per FU type, per thread (Count)
system.cpu.statIssuedInstType_0::IntDiv          4120      0.00%     29.32% # Number of instructions issued per FU type, per thread (Count)
system.cpu.statIssuedInstType_0::FloatAdd          242      0.00%     29.32% # Number of instructions issued per FU type, per thread (Count)
system.cpu.statIssuedInstType_0::FloatCmp          124      0.00%     29.32% # Number of instructions issued per FU type, per thread (Count)
system.cpu.statIssuedInstType_0::FloatCvt          262      0.00%     29.32% # Number of instructions issued per FU type, per thread (Count)
system.cpu.statIssuedInstType_0::FloatMult           45      0.00%     29.32% # Number of instructions issued per FU type, per thread (Count)
system.cpu.statIssuedInstType_0::FloatMultAcc           20      0.00%     29.32% # Number of instructions issued per FU type, per thread (Count)
system.cpu.statIssuedInstType_0::FloatDiv            7      0.00%     29.32% # Number of instructions issued per FU type, per thread (Count)
system.cpu.statIssuedInstType_0::FloatMisc         1622      0.00%     29.32% # Number of instructions issued per FU type, per thread (Count)
system.cpu.statIssuedInstType_0::FloatSqrt            4      0.00%     29.32% # Number of instructions issued per FU type, per thread (Count)
system.cpu.statIssuedInstType_0::SimdAdd            9      0.00%     29.32% # Number of instructions issued per FU type, per thread (Count)
system.cpu.statIssuedInstType_0::SimdAddAcc            0      0.00%     29.32% # Number of instructions issued per FU type, per thread (Count)
system.cpu.statIssuedInstType_0::SimdAlu        21002      0.00%     29.32% # Number of instructions issued per FU type, per thread (Count)
system.cpu.statIssuedInstType_0::SimdCmp        25242      0.00%     29.32% # Number of instructions issued per FU type, per thread (Count)
system.cpu.statIssuedInstType_0::SimdCvt           46      0.00%     29.32% # Number of instructions issued per FU type, per thread (Count)
system.cpu.statIssuedInstType_0::SimdMisc        22639      0.00%     29.33% # Number of instructions issued per FU type, per thread (Count)
system.cpu.statIssuedInstType_0::SimdMult            0      0.00%     29.33% # Number of instructions issued per FU type, per thread (Count)
system.cpu.statIssuedInstType_0::SimdMultAcc            0      0.00%     29.33% # Number of instructions issued per FU type, per thread (Count)
system.cpu.statIssuedInstType_0::SimdMatMultAcc            0      0.00%     29.33% # Number of instructions issued per FU type, per thread (Count)
system.cpu.statIssuedInstType_0::SimdShift          169      0.00%     29.33% # Number of instructions issued per FU type, per thread (Count)
system.cpu.statIssuedInstType_0::SimdShiftAcc            0      0.00%     29.33% # Number of instructions issued per FU type, per thread (Count)
system.cpu.statIssuedInstType_0::SimdDiv            0      0.00%     29.33% # Number of instructions issued per FU type, per thread (Count)
system.cpu.statIssuedInstType_0::SimdSqrt            0      0.00%     29.33% # Number of instructions issued per FU type, per thread (Count)
system.cpu.statIssuedInstType_0::SimdFloatAdd            0      0.00%     29.33% # Number of instructions issued per FU type, per thread (Count)
system.cpu.statIssuedInstType_0::SimdFloatAlu            0      0.00%     29.33% # Number of instructions issued per FU type, per thread (Count)
system.cpu.statIssuedInstType_0::SimdFloatCmp            0      0.00%     29.33% # Number of instructions issued per FU type, per thread (Count)
system.cpu.statIssuedInstType_0::SimdFloatCvt            0      0.00%     29.33% # Number of instructions issued per FU type, per thread (Count)
system.cpu.statIssuedInstType_0::SimdFloatDiv            0      0.00%     29.33% # Number of instructions issued per FU type, per thread (Count)
system.cpu.statIssuedInstType_0::SimdFloatMisc            0      0.00%     29.33% # Number of instructions issued per FU type, per thread (Count)
system.cpu.statIssuedInstType_0::SimdFloatMult            0      0.00%     29.33% # Number of instructions issued per FU type, per thread (Count)
system.cpu.statIssuedInstType_0::SimdFloatMultAcc            0      0.00%     29.33% # Number of instructions issued per FU type, per thread (Count)
system.cpu.statIssuedInstType_0::SimdFloatMatMultAcc            0      0.00%     29.33% # Number of instructions issued per FU type, per thread (Count)
system.cpu.statIssuedInstType_0::SimdFloatSqrt            0      0.00%     29.33% # Number of instructions issued per FU type, per thread (Count)
system.cpu.statIssuedInstType_0::SimdReduceAdd            0      0.00%     29.33% # Number of instructions issued per FU type, per thread (Count)
system.cpu.statIssuedInstType_0::SimdReduceAlu            0      0.00%     29.33% # Number of instructions issued per FU type, per thread (Count)
system.cpu.statIssuedInstType_0::SimdReduceCmp            0      0.00%     29.33% # Number of instructions issued per FU type, per thread (Count)
system.cpu.statIssuedInstType_0::SimdFloatReduceAdd            0      0.00%     29.33% # Number of instructions issued per FU type, per thread (Count)
system.cpu.statIssuedInstType_0::SimdFloatReduceCmp            0      0.00%     29.33% # Number of instructions issued per FU type, per thread (Count)
system.cpu.statIssuedInstType_0::SimdAes            0      0.00%     29.33% # Number of instructions issued per FU type, per thread (Count)
system.cpu.statIssuedInstType_0::SimdAesMix            0      0.00%     29.33% # Number of instructions issued per FU type, per thread (Count)
system.cpu.statIssuedInstType_0::SimdSha1Hash            0      0.00%     29.33% # Number of instructions issued per FU type, per thread (Count)
system.cpu.statIssuedInstType_0::SimdSha1Hash2            0      0.00%     29.33% # Number of instructions issued per FU type, per thread (Count)
system.cpu.statIssuedInstType_0::SimdSha256Hash            0      0.00%     29.33% # Number of instructions issued per FU type, per thread (Count)
system.cpu.statIssuedInstType_0::SimdSha256Hash2            0      0.00%     29.33% # Number of instructions issued per FU type, per thread (Count)
system.cpu.statIssuedInstType_0::SimdShaSigma2            0      0.00%     29.33% # Number of instructions issued per FU type, per thread (Count)
system.cpu.statIssuedInstType_0::SimdShaSigma3            0      0.00%     29.33% # Number of instructions issued per FU type, per thread (Count)
system.cpu.statIssuedInstType_0::SimdPredAlu            0      0.00%     29.33% # Number of instructions issued per FU type, per thread (Count)
system.cpu.statIssuedInstType_0::Matrix             0      0.00%     29.33% # Number of instructions issued per FU type, per thread (Count)
system.cpu.statIssuedInstType_0::MatrixMov            0      0.00%     29.33% # Number of instructions issued per FU type, per thread (Count)
system.cpu.statIssuedInstType_0::MatrixOP            0      0.00%     29.33% # Number of instructions issued per FU type, per thread (Count)
system.cpu.statIssuedInstType_0::MemRead    571235725     56.33%     85.66% # Number of instructions issued per FU type, per thread (Count)
system.cpu.statIssuedInstType_0::MemWrite    145426124     14.34%    100.00% # Number of instructions issued per FU type, per thread (Count)
system.cpu.statIssuedInstType_0::FloatMemRead            0      0.00%    100.00% # Number of instructions issued per FU type, per thread (Count)
system.cpu.statIssuedInstType_0::FloatMemWrite            0      0.00%    100.00% # Number of instructions issued per FU type, per thread (Count)
system.cpu.statIssuedInstType_0::IprAccess            0      0.00%    100.00% # Number of instructions issued per FU type, per thread (Count)
system.cpu.statIssuedInstType_0::InstPrefetch            0      0.00%    100.00% # Number of instructions issued per FU type, per thread (Count)
system.cpu.statIssuedInstType_0::SimdUnitStrideLoad            0      0.00%    100.00% # Number of instructions issued per FU type, per thread (Count)
system.cpu.statIssuedInstType_0::SimdUnitStrideStore            0      0.00%    100.00% # Number of instructions issued per FU type, per thread (Count)
system.cpu.statIssuedInstType_0::SimdUnitStrideMaskLoad            0      0.00%    100.00% # Number of instructions issued per FU type, per thread (Count)
system.cpu.statIssuedInstType_0::SimdUnitStrideMaskStore            0      0.00%    100.00% # Number of instructions issued per FU type, per thread (Count)
system.cpu.statIssuedInstType_0::SimdStridedLoad            0      0.00%    100.00% # Number of instructions issued per FU type, per thread (Count)
system.cpu.statIssuedInstType_0::SimdStridedStore            0      0.00%    100.00% # Number of instructions issued per FU type, per thread (Count)
system.cpu.statIssuedInstType_0::SimdIndexedLoad            0      0.00%    100.00% # Number of instructions issued per FU type, per thread (Count)
system.cpu.statIssuedInstType_0::SimdIndexedStore            0      0.00%    100.00% # Number of instructions issued per FU type, per thread (Count)
system.cpu.statIssuedInstType_0::SimdWholeRegisterLoad            0      0.00%    100.00% # Number of instructions issued per FU type, per thread (Count)
system.cpu.statIssuedInstType_0::SimdWholeRegisterStore            0      0.00%    100.00% # Number of instructions issued per FU type, per thread (Count)
system.cpu.statIssuedInstType_0::SimdUnitStrideFaultOnlyFirstLoad            0      0.00%    100.00% # Number of instructions issued per FU type, per thread (Count)
system.cpu.statIssuedInstType_0::SimdUnitStrideSegmentedLoad            0      0.00%    100.00% # Number of instructions issued per FU type, per thread (Count)
system.cpu.statIssuedInstType_0::SimdUnitStrideSegmentedStore            0      0.00%    100.00% # Number of instructions issued per FU type, per thread (Count)
system.cpu.statIssuedInstType_0::SimdExt            0      0.00%    100.00% # Number of instructions issued per FU type, per thread (Count)
system.cpu.statIssuedInstType_0::SimdFloatExt            0      0.00%    100.00% # Number of instructions issued per FU type, per thread (Count)
system.cpu.statIssuedInstType_0::SimdConfig            0      0.00%    100.00% # Number of instructions issued per FU type, per thread (Count)
system.cpu.statIssuedInstType_0::total     1014037538                       # Number of instructions issued per FU type, per thread (Count)
system.cpu.issueRate                         0.600634                       # Inst issue rate ((Count/Cycle))
system.cpu.fuBusy                           126275968                       # FU busy when requested (Count)
system.cpu.fuBusyRate                        0.124528                       # FU busy rate (busy events/executed inst) ((Count/Count))
system.cpu.intInstQueueReads               3837732081                       # Number of integer instruction queue reads (Count)
system.cpu.intInstQueueWrites               559422241                       # Number of integer instruction queue writes (Count)
system.cpu.intInstQueueWakeupAccesses       524946546                       # Number of integer instruction queue wakeup accesses (Count)
system.cpu.fpInstQueueReads                         0                       # Number of floating instruction queue reads (Count)
system.cpu.fpInstQueueWrites                        0                       # Number of floating instruction queue writes (Count)
system.cpu.fpInstQueueWakeupAccesses                0                       # Number of floating instruction queue wakeup accesses (Count)
system.cpu.vecInstQueueReads                  3790378                       # Number of vector instruction queue reads (Count)
system.cpu.vecInstQueueWrites                 2020571                       # Number of vector instruction queue writes (Count)
system.cpu.vecInstQueueWakeupAccesses         1789148                       # Number of vector instruction queue wakeup accesses (Count)
system.cpu.intAluAccesses                  1138127852                       # Number of integer alu accesses (Count)
system.cpu.fpAluAccesses                            0                       # Number of floating point alu accesses (Count)
system.cpu.vecAluAccesses                     1956838                       # Number of vector alu accesses (Count)
system.cpu.numSquashedInsts                    376664                       # Number of squashed instructions skipped in execute (Count)
system.cpu.numSwp                                   0                       # Number of swp insts executed (Count)
system.cpu.timesIdled                          148912                       # Number of times that the entire CPU went into an idle state and unscheduled itself (Count)
system.cpu.idleCycles                         1149165                       # Total number of cycles that the CPU has spent unscheduled due to idling (Cycle)
system.cpu.MemDepUnit__0.insertedLoads       89024815                       # Number of loads inserted to the mem dependence unit. (Count)
system.cpu.MemDepUnit__0.insertedStores     145788432                       # Number of stores inserted to the mem dependence unit. (Count)
system.cpu.MemDepUnit__0.conflictingLoads      7947415                       # Number of conflicting loads. (Count)
system.cpu.MemDepUnit__0.conflictingStores      1579842                       # Number of conflicting stores. (Count)
system.cpu.MemDepUnit__1.insertedLoads              0                       # Number of loads inserted to the mem dependence unit. (Count)
system.cpu.MemDepUnit__1.insertedStores             0                       # Number of stores inserted to the mem dependence unit. (Count)
system.cpu.MemDepUnit__1.conflictingLoads            0                       # Number of conflicting loads. (Count)
system.cpu.MemDepUnit__1.conflictingStores            0                       # Number of conflicting stores. (Count)
system.cpu.MemDepUnit__2.insertedLoads              0                       # Number of loads inserted to the mem dependence unit. (Count)
system.cpu.MemDepUnit__2.insertedStores             0                       # Number of stores inserted to the mem dependence unit. (Count)
system.cpu.MemDepUnit__2.conflictingLoads            0                       # Number of conflicting loads. (Count)
system.cpu.MemDepUnit__2.conflictingStores            0                       # Number of conflicting stores. (Count)
system.cpu.MemDepUnit__3.insertedLoads              0                       # Number of loads inserted to the mem dependence unit. (Count)
system.cpu.MemDepUnit__3.insertedStores             0                       # Number of stores inserted to the mem dependence unit. (Count)
system.cpu.MemDepUnit__3.conflictingLoads            0                       # Number of conflicting loads. (Count)
system.cpu.MemDepUnit__3.conflictingStores            0                       # Number of conflicting stores. (Count)
system.cpu.branchPred.lookups_0::NoBranch            0      0.00%      0.00% # Number of BP lookups (Count)
system.cpu.branchPred.lookups_0::Return       1239699      2.57%      2.57% # Number of BP lookups (Count)
system.cpu.branchPred.lookups_0::CallDirect       988019      2.05%      4.62% # Number of BP lookups (Count)
system.cpu.branchPred.lookups_0::CallIndirect       292631      0.61%      5.23% # Number of BP lookups (Count)
system.cpu.branchPred.lookups_0::DirectCond     44605002     92.59%     97.82% # Number of BP lookups (Count)
system.cpu.branchPred.lookups_0::DirectUncond       999641      2.07%     99.89% # Number of BP lookups (Count)
system.cpu.branchPred.lookups_0::IndirectCond            0      0.00%     99.89% # Number of BP lookups (Count)
system.cpu.branchPred.lookups_0::IndirectUncond        52179      0.11%    100.00% # Number of BP lookups (Count)
system.cpu.branchPred.lookups_0::total       48177171                       # Number of BP lookups (Count)
system.cpu.branchPred.squashes_0::NoBranch            0      0.00%      0.00% # Number of branches that got squashed (completely removed) as an earlier branch was mispredicted. (Count)
system.cpu.branchPred.squashes_0::Return       150799      3.99%      3.99% # Number of branches that got squashed (completely removed) as an earlier branch was mispredicted. (Count)
system.cpu.branchPred.squashes_0::CallDirect       138410      3.66%      7.66% # Number of branches that got squashed (completely removed) as an earlier branch was mispredicted. (Count)
system.cpu.branchPred.squashes_0::CallIndirect        53334      1.41%      9.07% # Number of branches that got squashed (completely removed) as an earlier branch was mispredicted. (Count)
system.cpu.branchPred.squashes_0::DirectCond      3279656     86.83%     95.90% # Number of branches that got squashed (completely removed) as an earlier branch was mispredicted. (Count)
system.cpu.branchPred.squashes_0::DirectUncond       149583      3.96%     99.86% # Number of branches that got squashed (completely removed) as an earlier branch was mispredicted. (Count)
system.cpu.branchPred.squashes_0::IndirectCond            0      0.00%     99.86% # Number of branches that got squashed (completely removed) as an earlier branch was mispredicted. (Count)
system.cpu.branchPred.squashes_0::IndirectUncond         5332      0.14%    100.00% # Number of branches that got squashed (completely removed) as an earlier branch was mispredicted. (Count)
system.cpu.branchPred.squashes_0::total       3777114                       # Number of branches that got squashed (completely removed) as an earlier branch was mispredicted. (Count)
system.cpu.branchPred.corrected_0::NoBranch            0      0.00%      0.00% # Number of branches that got corrected but not yet commited. Branches get corrected by decode or after execute. Also a branch misprediction can be detected out-of-order. Therefore, a corrected branch might not end up beeing committed in case an even earlier branch was mispredicted (Count)
system.cpu.branchPred.corrected_0::Return          109      0.04%      0.04% # Number of branches that got corrected but not yet commited. Branches get corrected by decode or after execute. Also a branch misprediction can be detected out-of-order. Therefore, a corrected branch might not end up beeing committed in case an even earlier branch was mispredicted (Count)
system.cpu.branchPred.corrected_0::CallDirect        36303     14.12%     14.16% # Number of branches that got corrected but not yet commited. Branches get corrected by decode or after execute. Also a branch misprediction can be detected out-of-order. Therefore, a corrected branch might not end up beeing committed in case an even earlier branch was mispredicted (Count)
system.cpu.branchPred.corrected_0::CallIndirect          685      0.27%     14.43% # Number of branches that got corrected but not yet commited. Branches get corrected by decode or after execute. Also a branch misprediction can be detected out-of-order. Therefore, a corrected branch might not end up beeing committed in case an even earlier branch was mispredicted (Count)
system.cpu.branchPred.corrected_0::DirectCond       198084     77.04%     91.47% # Number of branches that got corrected but not yet commited. Branches get corrected by decode or after execute. Also a branch misprediction can be detected out-of-order. Therefore, a corrected branch might not end up beeing committed in case an even earlier branch was mispredicted (Count)
system.cpu.branchPred.corrected_0::DirectUncond        20552      7.99%     99.46% # Number of branches that got corrected but not yet commited. Branches get corrected by decode or after execute. Also a branch misprediction can be detected out-of-order. Therefore, a corrected branch might not end up beeing committed in case an even earlier branch was mispredicted (Count)
system.cpu.branchPred.corrected_0::IndirectCond            0      0.00%     99.46% # Number of branches that got corrected but not yet commited. Branches get corrected by decode or after execute. Also a branch misprediction can be detected out-of-order. Therefore, a corrected branch might not end up beeing committed in case an even earlier branch was mispredicted (Count)
system.cpu.branchPred.corrected_0::IndirectUncond         1378      0.54%    100.00% # Number of branches that got corrected but not yet commited. Branches get corrected by decode or after execute. Also a branch misprediction can be detected out-of-order. Therefore, a corrected branch might not end up beeing committed in case an even earlier branch was mispredicted (Count)
system.cpu.branchPred.corrected_0::total       257111                       # Number of branches that got corrected but not yet commited. Branches get corrected by decode or after execute. Also a branch misprediction can be detected out-of-order. Therefore, a corrected branch might not end up beeing committed in case an even earlier branch was mispredicted (Count)
system.cpu.branchPred.earlyResteers_0::NoBranch            0                       # Number of branches that got redirected after decode. (Count)
system.cpu.branchPred.earlyResteers_0::Return            0                       # Number of branches that got redirected after decode. (Count)
system.cpu.branchPred.earlyResteers_0::CallDirect            0                       # Number of branches that got redirected after decode. (Count)
system.cpu.branchPred.earlyResteers_0::CallIndirect            0                       # Number of branches that got redirected after decode. (Count)
system.cpu.branchPred.earlyResteers_0::DirectCond            0                       # Number of branches that got redirected after decode. (Count)
system.cpu.branchPred.earlyResteers_0::DirectUncond            0                       # Number of branches that got redirected after decode. (Count)
system.cpu.branchPred.earlyResteers_0::IndirectCond            0                       # Number of branches that got redirected after decode. (Count)
system.cpu.branchPred.earlyResteers_0::IndirectUncond            0                       # Number of branches that got redirected after decode. (Count)
system.cpu.branchPred.earlyResteers_0::total            0                       # Number of branches that got redirected after decode. (Count)
system.cpu.branchPred.committed_0::NoBranch            0      0.00%      0.00% # Number of branches finally committed  (Count)
system.cpu.branchPred.committed_0::Return      1088900      2.45%      2.45% # Number of branches finally committed  (Count)
system.cpu.branchPred.committed_0::CallDirect       849609      1.91%      4.37% # Number of branches finally committed  (Count)
system.cpu.branchPred.committed_0::CallIndirect       239297      0.54%      4.90% # Number of branches finally committed  (Count)
system.cpu.branchPred.committed_0::DirectCond     41325343     93.07%     97.98% # Number of branches finally committed  (Count)
system.cpu.branchPred.committed_0::DirectUncond       850058      1.91%     99.89% # Number of branches finally committed  (Count)
system.cpu.branchPred.committed_0::IndirectCond            0      0.00%     99.89% # Number of branches finally committed  (Count)
system.cpu.branchPred.committed_0::IndirectUncond        46847      0.11%    100.00% # Number of branches finally committed  (Count)
system.cpu.branchPred.committed_0::total     44400054                       # Number of branches finally committed  (Count)
system.cpu.branchPred.mispredicted_0::NoBranch            0      0.00%      0.00% # Number of committed branches that were mispredicted. (Count)
system.cpu.branchPred.mispredicted_0::Return            3      0.00%      0.00% # Number of committed branches that were mispredicted. (Count)
system.cpu.branchPred.mispredicted_0::CallDirect        31243     13.36%     13.36% # Number of committed branches that were mispredicted. (Count)
system.cpu.branchPred.mispredicted_0::CallIndirect          676      0.29%     13.65% # Number of committed branches that were mispredicted. (Count)
system.cpu.branchPred.mispredicted_0::DirectCond       185469     79.32%     92.98% # Number of committed branches that were mispredicted. (Count)
system.cpu.branchPred.mispredicted_0::DirectUncond        15080      6.45%     99.43% # Number of committed branches that were mispredicted. (Count)
system.cpu.branchPred.mispredicted_0::IndirectCond            0      0.00%     99.43% # Number of committed branches that were mispredicted. (Count)
system.cpu.branchPred.mispredicted_0::IndirectUncond         1339      0.57%    100.00% # Number of committed branches that were mispredicted. (Count)
system.cpu.branchPred.mispredicted_0::total       233810                       # Number of committed branches that were mispredicted. (Count)
system.cpu.branchPred.targetProvider_0::NoTarget      5237768     10.87%     10.87% # The component providing the target for taken branches (Count)
system.cpu.branchPred.targetProvider_0::BTB     41378421     85.89%     96.76% # The component providing the target for taken branches (Count)
system.cpu.branchPred.targetProvider_0::RAS      1239699      2.57%     99.33% # The component providing the target for taken branches (Count)
system.cpu.branchPred.targetProvider_0::Indirect       321283      0.67%    100.00% # The component providing the target for taken branches (Count)
system.cpu.branchPred.targetProvider_0::total     48177171                       # The component providing the target for taken branches (Count)
system.cpu.branchPred.targetWrong_0::NoBranch       177612     69.08%     69.08% # Number of branches where the target was incorrect or not available at prediction time. (Count)
system.cpu.branchPred.targetWrong_0::Return        78803     30.65%     99.73% # Number of branches where the target was incorrect or not available at prediction time. (Count)
system.cpu.branchPred.targetWrong_0::CallDirect          109      0.04%     99.77% # Number of branches where the target was incorrect or not available at prediction time. (Count)
system.cpu.branchPred.targetWrong_0::CallIndirect          587      0.23%    100.00% # Number of branches where the target was incorrect or not available at prediction time. (Count)
system.cpu.branchPred.targetWrong_0::DirectCond            0      0.00%    100.00% # Number of branches where the target was incorrect or not available at prediction time. (Count)
system.cpu.branchPred.targetWrong_0::DirectUncond            0      0.00%    100.00% # Number of branches where the target was incorrect or not available at prediction time. (Count)
system.cpu.branchPred.targetWrong_0::IndirectCond            0      0.00%    100.00% # Number of branches where the target was incorrect or not available at prediction time. (Count)
system.cpu.branchPred.targetWrong_0::IndirectUncond            0      0.00%    100.00% # Number of branches where the target was incorrect or not available at prediction time. (Count)
system.cpu.branchPred.targetWrong_0::total       257111                       # Number of branches where the target was incorrect or not available at prediction time. (Count)
system.cpu.branchPred.condPredicted          44605002                       # Number of conditional branches predicted (Count)
system.cpu.branchPred.condPredictedTaken     39594487                       # Number of conditional branches predicted as taken (Count)
system.cpu.branchPred.condIncorrect            257111                       # Number of conditional branches incorrect (Count)
system.cpu.branchPred.predTakenBTBMiss         125693                       # Number of branches predicted taken but missed in BTB (Count)
system.cpu.branchPred.NotTakenMispredicted       178308                       # Number branches predicted 'not taken' but turned out to be taken (Count)
system.cpu.branchPred.TakenMispredicted         78803                       # Number branches predicted taken but are actually not taken (Count)
system.cpu.branchPred.BTBLookups             48177171                       # Number of BTB lookups (Count)
system.cpu.branchPred.BTBUpdates               176136                       # Number of BTB updates (Count)
system.cpu.branchPred.BTBHits                43634008                       # Number of BTB hits (Count)
system.cpu.branchPred.BTBHitRatio            0.905699                       # BTB Hit Ratio (Ratio)
system.cpu.branchPred.BTBMispredicted          127781                       # Number BTB mispredictions. No target found or target wrong (Count)
system.cpu.branchPred.indirectLookups          344810                       # Number of indirect predictor lookups. (Count)
system.cpu.branchPred.indirectHits             321283                       # Number of indirect target hits. (Count)
system.cpu.branchPred.indirectMisses            23527                       # Number of indirect misses. (Count)
system.cpu.branchPred.indirectMispredicted            0                       # Number of mispredicted indirect branches. (Count)
system.cpu.branchPred.btb.lookups::NoBranch            0      0.00%      0.00% # Number of BTB lookups (Count)
system.cpu.branchPred.btb.lookups::Return      1239699      2.57%      2.57% # Number of BTB lookups (Count)
system.cpu.branchPred.btb.lookups::CallDirect       988019      2.05%      4.62% # Number of BTB lookups (Count)
system.cpu.branchPred.btb.lookups::CallIndirect       292631      0.61%      5.23% # Number of BTB lookups (Count)
system.cpu.branchPred.btb.lookups::DirectCond     44605002     92.59%     97.82% # Number of BTB lookups (Count)
system.cpu.branchPred.btb.lookups::DirectUncond       999641      2.07%     99.89% # Number of BTB lookups (Count)
system.cpu.branchPred.btb.lookups::IndirectCond            0      0.00%     99.89% # Number of BTB lookups (Count)
system.cpu.branchPred.btb.lookups::IndirectUncond        52179      0.11%    100.00% # Number of BTB lookups (Count)
system.cpu.branchPred.btb.lookups::total     48177171                       # Number of BTB lookups (Count)
system.cpu.branchPred.btb.misses::NoBranch            0      0.00%      0.00% # Number of BTB misses (Count)
system.cpu.branchPred.btb.misses::Return      1239699     27.29%     27.29% # Number of BTB misses (Count)
system.cpu.branchPred.btb.misses::CallDirect        43312      0.95%     28.24% # Number of BTB misses (Count)
system.cpu.branchPred.btb.misses::CallIndirect       292631      6.44%     34.68% # Number of BTB misses (Count)
system.cpu.branchPred.btb.misses::DirectCond      2889524     63.60%     98.28% # Number of BTB misses (Count)
system.cpu.branchPred.btb.misses::DirectUncond        25818      0.57%     98.85% # Number of BTB misses (Count)
system.cpu.branchPred.btb.misses::IndirectCond            0      0.00%     98.85% # Number of BTB misses (Count)
system.cpu.branchPred.btb.misses::IndirectUncond        52179      1.15%    100.00% # Number of BTB misses (Count)
system.cpu.branchPred.btb.misses::total       4543163                       # Number of BTB misses (Count)
system.cpu.branchPred.btb.updates::NoBranch            0      0.00%      0.00% # Number of BTB updates (Count)
system.cpu.branchPred.btb.updates::Return            0      0.00%      0.00% # Number of BTB updates (Count)
system.cpu.branchPred.btb.updates::CallDirect        36303     20.61%     20.61% # Number of BTB updates (Count)
system.cpu.branchPred.btb.updates::CallIndirect            0      0.00%     20.61% # Number of BTB updates (Count)
system.cpu.branchPred.btb.updates::DirectCond       119281     67.72%     88.33% # Number of BTB updates (Count)
system.cpu.branchPred.btb.updates::DirectUncond        20552     11.67%    100.00% # Number of BTB updates (Count)
system.cpu.branchPred.btb.updates::IndirectCond            0      0.00%    100.00% # Number of BTB updates (Count)
system.cpu.branchPred.btb.updates::IndirectUncond            0      0.00%    100.00% # Number of BTB updates (Count)
system.cpu.branchPred.btb.updates::total       176136                       # Number of BTB updates (Count)
system.cpu.branchPred.btb.mispredict::NoBranch            0      0.00%      0.00% # Number of BTB mispredictions. No target found or target wrong. (Count)
system.cpu.branchPred.btb.mispredict::Return            0      0.00%      0.00% # Number of BTB mispredictions. No target found or target wrong. (Count)
system.cpu.branchPred.btb.mispredict::CallDirect        36303     20.61%     20.61% # Number of BTB mispredictions. No target found or target wrong. (Count)
system.cpu.branchPred.btb.mispredict::CallIndirect            0      0.00%     20.61% # Number of BTB mispredictions. No target found or target wrong. (Count)
system.cpu.branchPred.btb.mispredict::DirectCond       119281     67.72%     88.33% # Number of BTB mispredictions. No target found or target wrong. (Count)
system.cpu.branchPred.btb.mispredict::DirectUncond        20552     11.67%    100.00% # Number of BTB mispredictions. No target found or target wrong. (Count)
system.cpu.branchPred.btb.mispredict::IndirectCond            0      0.00%    100.00% # Number of BTB mispredictions. No target found or target wrong. (Count)
system.cpu.branchPred.btb.mispredict::IndirectUncond            0      0.00%    100.00% # Number of BTB mispredictions. No target found or target wrong. (Count)
system.cpu.branchPred.btb.mispredict::total       176136                       # Number of BTB mispredictions. No target found or target wrong. (Count)
system.cpu.branchPred.btb.power_state.pwrStateResidencyTicks::UNDEFINED 844139432000                       # Cumulative time (in ticks) in various power states (Tick)
system.cpu.branchPred.indirectBranchPred.lookups       344810                       # Number of lookups (Count)
system.cpu.branchPred.indirectBranchPred.hits       321283                       # Number of hits of a tag (Count)
system.cpu.branchPred.indirectBranchPred.misses        23527                       # Number of misses (Count)
system.cpu.branchPred.indirectBranchPred.targetRecords         2063                       # Number of targets that where recorded/installed in the cache (Count)
system.cpu.branchPred.indirectBranchPred.indirectRecords       346873                       # Number of indirect branches/calls recorded in the indirect hist (Count)
system.cpu.branchPred.indirectBranchPred.speculativeOverflows            2                       # Number of times more than the allowed capacity for speculative branches/calls where in flight and destroy the path history (Count)
system.cpu.branchPred.ras.pushes              1431449                       # Number of times a PC was pushed onto the RAS (Count)
system.cpu.branchPred.ras.pops                1431443                       # Number of times a PC was poped from the RAS (Count)
system.cpu.branchPred.ras.squashes             342543                       # Number of times the stack operation was squashed due to wrong speculation. (Count)
system.cpu.branchPred.ras.used                1088900                       # Number of times the RAS is the provider (Count)
system.cpu.branchPred.ras.correct             1088897                       # Number of times the RAS is the provider and the prediction is correct (Count)
system.cpu.branchPred.ras.incorrect                 3                       # Number of times the RAS is the provider and the prediction is wrong (Count)
system.cpu.commit.commitSquashedInsts        25551586                       # The number of squashed insts skipped by commit (Count)
system.cpu.commit.commitNonSpecStalls          229474                       # The number of times commit has been forced to stall to communicate backwards (Count)
system.cpu.commit.branchMispredicts            200256                       # The number of times a branch was mispredicted (Count)
system.cpu.commit.numCommittedDist::samples   1683704384                       # Number of insts commited each cycle (Count)
system.cpu.commit.numCommittedDist::mean     0.300884                       # Number of insts commited each cycle (Count)
system.cpu.commit.numCommittedDist::stdev     1.330860                       # Number of insts commited each cycle (Count)
system.cpu.commit.numCommittedDist::underflows            0      0.00%      0.00% # Number of insts commited each cycle (Count)
system.cpu.commit.numCommittedDist::0      1569386196     93.21%     93.21% # Number of insts commited each cycle (Count)
system.cpu.commit.numCommittedDist::1        23174570      1.38%     94.59% # Number of insts commited each cycle (Count)
system.cpu.commit.numCommittedDist::2        21048617      1.25%     95.84% # Number of insts commited each cycle (Count)
system.cpu.commit.numCommittedDist::3         8561826      0.51%     96.35% # Number of insts commited each cycle (Count)
system.cpu.commit.numCommittedDist::4         5646675      0.34%     96.68% # Number of insts commited each cycle (Count)
system.cpu.commit.numCommittedDist::5        13857488      0.82%     97.50% # Number of insts commited each cycle (Count)
system.cpu.commit.numCommittedDist::6         5232088      0.31%     97.81% # Number of insts commited each cycle (Count)
system.cpu.commit.numCommittedDist::7         1998888      0.12%     97.93% # Number of insts commited each cycle (Count)
system.cpu.commit.numCommittedDist::8        34798036      2.07%    100.00% # Number of insts commited each cycle (Count)
system.cpu.commit.numCommittedDist::overflows            0      0.00%    100.00% # Number of insts commited each cycle (Count)
system.cpu.commit.numCommittedDist::min_value            0                       # Number of insts commited each cycle (Count)
system.cpu.commit.numCommittedDist::max_value            8                       # Number of insts commited each cycle (Count)
system.cpu.commit.numCommittedDist::total   1683704384                       # Number of insts commited each cycle (Count)
system.cpu.commit.amos                              0                       # Number of atomic instructions committed (Count)
system.cpu.commit.membars                         278                       # Number of memory barriers committed (Count)
system.cpu.commit.functionCalls               1088906                       # Number of function calls committed. (Count)
system.cpu.commit.committedInstType_0::No_OpClass       228810      0.05%      0.05% # Class of committed instruction (Count)
system.cpu.commit.committedInstType_0::IntAlu    269263950     53.15%     53.20% # Class of committed instruction (Count)
system.cpu.commit.committedInstType_0::IntMult     13918710      2.75%     55.94% # Class of committed instruction (Count)
system.cpu.commit.committedInstType_0::IntDiv         3974      0.00%     55.94% # Class of committed instruction (Count)
system.cpu.commit.committedInstType_0::FloatAdd          240      0.00%     55.94% # Class of committed instruction (Count)
system.cpu.commit.committedInstType_0::FloatCmp          123      0.00%     55.94% # Class of committed instruction (Count)
system.cpu.commit.committedInstType_0::FloatCvt          250      0.00%     55.94% # Class of committed instruction (Count)
system.cpu.commit.committedInstType_0::FloatMult           34      0.00%     55.94% # Class of committed instruction (Count)
system.cpu.commit.committedInstType_0::FloatMultAcc           20      0.00%     55.94% # Class of committed instruction (Count)
system.cpu.commit.committedInstType_0::FloatDiv            7      0.00%     55.94% # Class of committed instruction (Count)
system.cpu.commit.committedInstType_0::FloatMisc         1488      0.00%     55.94% # Class of committed instruction (Count)
system.cpu.commit.committedInstType_0::FloatSqrt            4      0.00%     55.94% # Class of committed instruction (Count)
system.cpu.commit.committedInstType_0::SimdAdd            7      0.00%     55.94% # Class of committed instruction (Count)
system.cpu.commit.committedInstType_0::SimdAddAcc            0      0.00%     55.94% # Class of committed instruction (Count)
system.cpu.commit.committedInstType_0::SimdAlu        20000      0.00%     55.95% # Class of committed instruction (Count)
system.cpu.commit.committedInstType_0::SimdCmp        21623      0.00%     55.95% # Class of committed instruction (Count)
system.cpu.commit.committedInstType_0::SimdCvt            0      0.00%     55.95% # Class of committed instruction (Count)
system.cpu.commit.committedInstType_0::SimdMisc        21558      0.00%     55.96% # Class of committed instruction (Count)
system.cpu.commit.committedInstType_0::SimdMult            0      0.00%     55.96% # Class of committed instruction (Count)
system.cpu.commit.committedInstType_0::SimdMultAcc            0      0.00%     55.96% # Class of committed instruction (Count)
system.cpu.commit.committedInstType_0::SimdMatMultAcc            0      0.00%     55.96% # Class of committed instruction (Count)
system.cpu.commit.committedInstType_0::SimdShift          152      0.00%     55.96% # Class of committed instruction (Count)
system.cpu.commit.committedInstType_0::SimdShiftAcc            0      0.00%     55.96% # Class of committed instruction (Count)
system.cpu.commit.committedInstType_0::SimdDiv            0      0.00%     55.96% # Class of committed instruction (Count)
system.cpu.commit.committedInstType_0::SimdSqrt            0      0.00%     55.96% # Class of committed instruction (Count)
system.cpu.commit.committedInstType_0::SimdFloatAdd            0      0.00%     55.96% # Class of committed instruction (Count)
system.cpu.commit.committedInstType_0::SimdFloatAlu            0      0.00%     55.96% # Class of committed instruction (Count)
system.cpu.commit.committedInstType_0::SimdFloatCmp            0      0.00%     55.96% # Class of committed instruction (Count)
system.cpu.commit.committedInstType_0::SimdFloatCvt            0      0.00%     55.96% # Class of committed instruction (Count)
system.cpu.commit.committedInstType_0::SimdFloatDiv            0      0.00%     55.96% # Class of committed instruction (Count)
system.cpu.commit.committedInstType_0::SimdFloatMisc            0      0.00%     55.96% # Class of committed instruction (Count)
system.cpu.commit.committedInstType_0::SimdFloatMult            0      0.00%     55.96% # Class of committed instruction (Count)
system.cpu.commit.committedInstType_0::SimdFloatMultAcc            0      0.00%     55.96% # Class of committed instruction (Count)
system.cpu.commit.committedInstType_0::SimdFloatMatMultAcc            0      0.00%     55.96% # Class of committed instruction (Count)
system.cpu.commit.committedInstType_0::SimdFloatSqrt            0      0.00%     55.96% # Class of committed instruction (Count)
system.cpu.commit.committedInstType_0::SimdReduceAdd            0      0.00%     55.96% # Class of committed instruction (Count)
system.cpu.commit.committedInstType_0::SimdReduceAlu            0      0.00%     55.96% # Class of committed instruction (Count)
system.cpu.commit.committedInstType_0::SimdReduceCmp            0      0.00%     55.96% # Class of committed instruction (Count)
system.cpu.commit.committedInstType_0::SimdFloatReduceAdd            0      0.00%     55.96% # Class of committed instruction (Count)
system.cpu.commit.committedInstType_0::SimdFloatReduceCmp            0      0.00%     55.96% # Class of committed instruction (Count)
system.cpu.commit.committedInstType_0::SimdAes            0      0.00%     55.96% # Class of committed instruction (Count)
system.cpu.commit.committedInstType_0::SimdAesMix            0      0.00%     55.96% # Class of committed instruction (Count)
system.cpu.commit.committedInstType_0::SimdSha1Hash            0      0.00%     55.96% # Class of committed instruction (Count)
system.cpu.commit.committedInstType_0::SimdSha1Hash2            0      0.00%     55.96% # Class of committed instruction (Count)
system.cpu.commit.committedInstType_0::SimdSha256Hash            0      0.00%     55.96% # Class of committed instruction (Count)
system.cpu.commit.committedInstType_0::SimdSha256Hash2            0      0.00%     55.96% # Class of committed instruction (Count)
system.cpu.commit.committedInstType_0::SimdShaSigma2            0      0.00%     55.96% # Class of committed instruction (Count)
system.cpu.commit.committedInstType_0::SimdShaSigma3            0      0.00%     55.96% # Class of committed instruction (Count)
system.cpu.commit.committedInstType_0::SimdPredAlu            0      0.00%     55.96% # Class of committed instruction (Count)
system.cpu.commit.committedInstType_0::Matrix            0      0.00%     55.96% # Class of committed instruction (Count)
system.cpu.commit.committedInstType_0::MatrixMov            0      0.00%     55.96% # Class of committed instruction (Count)
system.cpu.commit.committedInstType_0::MatrixOP            0      0.00%     55.96% # Class of committed instruction (Count)
system.cpu.commit.committedInstType_0::MemRead     84819402     16.74%     72.70% # Class of committed instruction (Count)
system.cpu.commit.committedInstType_0::MemWrite    138300102     27.30%    100.00% # Class of committed instruction (Count)
system.cpu.commit.committedInstType_0::FloatMemRead            0      0.00%    100.00% # Class of committed instruction (Count)
system.cpu.commit.committedInstType_0::FloatMemWrite            0      0.00%    100.00% # Class of committed instruction (Count)
system.cpu.commit.committedInstType_0::IprAccess            0      0.00%    100.00% # Class of committed instruction (Count)
system.cpu.commit.committedInstType_0::InstPrefetch            0      0.00%    100.00% # Class of committed instruction (Count)
system.cpu.commit.committedInstType_0::SimdUnitStrideLoad            0      0.00%    100.00% # Class of committed instruction (Count)
system.cpu.commit.committedInstType_0::SimdUnitStrideStore            0      0.00%    100.00% # Class of committed instruction (Count)
system.cpu.commit.committedInstType_0::SimdUnitStrideMaskLoad            0      0.00%    100.00% # Class of committed instruction (Count)
system.cpu.commit.committedInstType_0::SimdUnitStrideMaskStore            0      0.00%    100.00% # Class of committed instruction (Count)
system.cpu.commit.committedInstType_0::SimdStridedLoad            0      0.00%    100.00% # Class of committed instruction (Count)
system.cpu.commit.committedInstType_0::SimdStridedStore            0      0.00%    100.00% # Class of committed instruction (Count)
system.cpu.commit.committedInstType_0::SimdIndexedLoad            0      0.00%    100.00% # Class of committed instruction (Count)
system.cpu.commit.committedInstType_0::SimdIndexedStore            0      0.00%    100.00% # Class of committed instruction (Count)
system.cpu.commit.committedInstType_0::SimdWholeRegisterLoad            0      0.00%    100.00% # Class of committed instruction (Count)
system.cpu.commit.committedInstType_0::SimdWholeRegisterStore            0      0.00%    100.00% # Class of committed instruction (Count)
system.cpu.commit.committedInstType_0::SimdUnitStrideFaultOnlyFirstLoad            0      0.00%    100.00% # Class of committed instruction (Count)
system.cpu.commit.committedInstType_0::SimdUnitStrideSegmentedLoad            0      0.00%    100.00% # Class of committed instruction (Count)
system.cpu.commit.committedInstType_0::SimdUnitStrideSegmentedStore            0      0.00%    100.00% # Class of committed instruction (Count)
system.cpu.commit.committedInstType_0::SimdExt            0      0.00%    100.00% # Class of committed instruction (Count)
system.cpu.commit.committedInstType_0::SimdFloatExt            0      0.00%    100.00% # Class of committed instruction (Count)
system.cpu.commit.committedInstType_0::SimdConfig            0      0.00%    100.00% # Class of committed instruction (Count)
system.cpu.commit.committedInstType_0::total    506600454                       # Class of committed instruction (Count)
system.cpu.commit.commitEligibleSamples      34798036                       # number cycles where commit BW limit reached (Cycle)
system.cpu.commitStats0.numInsts            501590729                       # Number of instructions committed (thread level) (Count)
system.cpu.commitStats0.numOps              506600454                       # Number of ops (including micro ops) committed (thread level) (Count)
system.cpu.commitStats0.numInstsNotNOP      500000000                       # Number of instructions committed excluding NOPs or prefetches (Count)
system.cpu.commitStats0.numOpsNotNOP        505009725                       # Number of Ops (including micro ops) Simulated (Count)
system.cpu.commitStats0.cpi                  3.365849                       # CPI: cycles per instruction (thread level) ((Cycle/Count))
system.cpu.commitStats0.ipc                  0.297102                       # IPC: instructions per cycle (thread level) ((Count/Cycle))
system.cpu.commitStats0.numMemRefs          223119504                       # Number of memory references committed (Count)
system.cpu.commitStats0.numFpInsts                  0                       # Number of float instructions (Count)
system.cpu.commitStats0.numIntInsts         463107527                       # Number of integer instructions (Count)
system.cpu.commitStats0.numLoadInsts         84819402                       # Number of load instructions (Count)
system.cpu.commitStats0.numStoreInsts       138299630                       # Number of store instructions (Count)
system.cpu.commitStats0.numVecInsts           1771293                       # Number of vector instructions (Count)
system.cpu.commitStats0.committedInstType::No_OpClass       228810      0.05%      0.05% # Class of committed instruction. (Count)
system.cpu.commitStats0.committedInstType::IntAlu    269263950     53.15%     53.20% # Class of committed instruction. (Count)
system.cpu.commitStats0.committedInstType::IntMult     13918710      2.75%     55.94% # Class of committed instruction. (Count)
system.cpu.commitStats0.committedInstType::IntDiv         3974      0.00%     55.94% # Class of committed instruction. (Count)
system.cpu.commitStats0.committedInstType::FloatAdd          240      0.00%     55.94% # Class of committed instruction. (Count)
system.cpu.commitStats0.committedInstType::FloatCmp          123      0.00%     55.94% # Class of committed instruction. (Count)
system.cpu.commitStats0.committedInstType::FloatCvt          250      0.00%     55.94% # Class of committed instruction. (Count)
system.cpu.commitStats0.committedInstType::FloatMult           34      0.00%     55.94% # Class of committed instruction. (Count)
system.cpu.commitStats0.committedInstType::FloatMultAcc           20      0.00%     55.94% # Class of committed instruction. (Count)
system.cpu.commitStats0.committedInstType::FloatDiv            7      0.00%     55.94% # Class of committed instruction. (Count)
system.cpu.commitStats0.committedInstType::FloatMisc         1488      0.00%     55.94% # Class of committed instruction. (Count)
system.cpu.commitStats0.committedInstType::FloatSqrt            4      0.00%     55.94% # Class of committed instruction. (Count)
system.cpu.commitStats0.committedInstType::SimdAdd            7      0.00%     55.94% # Class of committed instruction. (Count)
system.cpu.commitStats0.committedInstType::SimdAddAcc            0      0.00%     55.94% # Class of committed instruction. (Count)
system.cpu.commitStats0.committedInstType::SimdAlu        20000      0.00%     55.95% # Class of committed instruction. (Count)
system.cpu.commitStats0.committedInstType::SimdCmp        21623      0.00%     55.95% # Class of committed instruction. (Count)
system.cpu.commitStats0.committedInstType::SimdCvt            0      0.00%     55.95% # Class of committed instruction. (Count)
system.cpu.commitStats0.committedInstType::SimdMisc        21558      0.00%     55.96% # Class of committed instruction. (Count)
system.cpu.commitStats0.committedInstType::SimdMult            0      0.00%     55.96% # Class of committed instruction. (Count)
system.cpu.commitStats0.committedInstType::SimdMultAcc            0      0.00%     55.96% # Class of committed instruction. (Count)
system.cpu.commitStats0.committedInstType::SimdMatMultAcc            0      0.00%     55.96% # Class of committed instruction. (Count)
system.cpu.commitStats0.committedInstType::SimdShift          152      0.00%     55.96% # Class of committed instruction. (Count)
system.cpu.commitStats0.committedInstType::SimdShiftAcc            0      0.00%     55.96% # Class of committed instruction. (Count)
system.cpu.commitStats0.committedInstType::SimdDiv            0      0.00%     55.96% # Class of committed instruction. (Count)
system.cpu.commitStats0.committedInstType::SimdSqrt            0      0.00%     55.96% # Class of committed instruction. (Count)
system.cpu.commitStats0.committedInstType::SimdFloatAdd            0      0.00%     55.96% # Class of committed instruction. (Count)
system.cpu.commitStats0.committedInstType::SimdFloatAlu            0      0.00%     55.96% # Class of committed instruction. (Count)
system.cpu.commitStats0.committedInstType::SimdFloatCmp            0      0.00%     55.96% # Class of committed instruction. (Count)
system.cpu.commitStats0.committedInstType::SimdFloatCvt            0      0.00%     55.96% # Class of committed instruction. (Count)
system.cpu.commitStats0.committedInstType::SimdFloatDiv            0      0.00%     55.96% # Class of committed instruction. (Count)
system.cpu.commitStats0.committedInstType::SimdFloatMisc            0      0.00%     55.96% # Class of committed instruction. (Count)
system.cpu.commitStats0.committedInstType::SimdFloatMult            0      0.00%     55.96% # Class of committed instruction. (Count)
system.cpu.commitStats0.committedInstType::SimdFloatMultAcc            0      0.00%     55.96% # Class of committed instruction. (Count)
system.cpu.commitStats0.committedInstType::SimdFloatMatMultAcc            0      0.00%     55.96% # Class of committed instruction. (Count)
system.cpu.commitStats0.committedInstType::SimdFloatSqrt            0      0.00%     55.96% # Class of committed instruction. (Count)
system.cpu.commitStats0.committedInstType::SimdReduceAdd            0      0.00%     55.96% # Class of committed instruction. (Count)
system.cpu.commitStats0.committedInstType::SimdReduceAlu            0      0.00%     55.96% # Class of committed instruction. (Count)
system.cpu.commitStats0.committedInstType::SimdReduceCmp            0      0.00%     55.96% # Class of committed instruction. (Count)
system.cpu.commitStats0.committedInstType::SimdFloatReduceAdd            0      0.00%     55.96% # Class of committed instruction. (Count)
system.cpu.commitStats0.committedInstType::SimdFloatReduceCmp            0      0.00%     55.96% # Class of committed instruction. (Count)
system.cpu.commitStats0.committedInstType::SimdAes            0      0.00%     55.96% # Class of committed instruction. (Count)
system.cpu.commitStats0.committedInstType::SimdAesMix            0      0.00%     55.96% # Class of committed instruction. (Count)
system.cpu.commitStats0.committedInstType::SimdSha1Hash            0      0.00%     55.96% # Class of committed instruction. (Count)
system.cpu.commitStats0.committedInstType::SimdSha1Hash2            0      0.00%     55.96% # Class of committed instruction. (Count)
system.cpu.commitStats0.committedInstType::SimdSha256Hash            0      0.00%     55.96% # Class of committed instruction. (Count)
system.cpu.commitStats0.committedInstType::SimdSha256Hash2            0      0.00%     55.96% # Class of committed instruction. (Count)
system.cpu.commitStats0.committedInstType::SimdShaSigma2            0      0.00%     55.96% # Class of committed instruction. (Count)
system.cpu.commitStats0.committedInstType::SimdShaSigma3            0      0.00%     55.96% # Class of committed instruction. (Count)
system.cpu.commitStats0.committedInstType::SimdPredAlu            0      0.00%     55.96% # Class of committed instruction. (Count)
system.cpu.commitStats0.committedInstType::Matrix            0      0.00%     55.96% # Class of committed instruction. (Count)
system.cpu.commitStats0.committedInstType::MatrixMov            0      0.00%     55.96% # Class of committed instruction. (Count)
system.cpu.commitStats0.committedInstType::MatrixOP            0      0.00%     55.96% # Class of committed instruction. (Count)
system.cpu.commitStats0.committedInstType::MemRead     84819402     16.74%     72.70% # Class of committed instruction. (Count)
system.cpu.commitStats0.committedInstType::MemWrite    138300102     27.30%    100.00% # Class of committed instruction. (Count)
system.cpu.commitStats0.committedInstType::FloatMemRead            0      0.00%    100.00% # Class of committed instruction. (Count)
system.cpu.commitStats0.committedInstType::FloatMemWrite            0      0.00%    100.00% # Class of committed instruction. (Count)
system.cpu.commitStats0.committedInstType::IprAccess            0      0.00%    100.00% # Class of committed instruction. (Count)
system.cpu.commitStats0.committedInstType::InstPrefetch            0      0.00%    100.00% # Class of committed instruction. (Count)
system.cpu.commitStats0.committedInstType::SimdUnitStrideLoad            0      0.00%    100.00% # Class of committed instruction. (Count)
system.cpu.commitStats0.committedInstType::SimdUnitStrideStore            0      0.00%    100.00% # Class of committed instruction. (Count)
system.cpu.commitStats0.committedInstType::SimdUnitStrideMaskLoad            0      0.00%    100.00% # Class of committed instruction. (Count)
system.cpu.commitStats0.committedInstType::SimdUnitStrideMaskStore            0      0.00%    100.00% # Class of committed instruction. (Count)
system.cpu.commitStats0.committedInstType::SimdStridedLoad            0      0.00%    100.00% # Class of committed instruction. (Count)
system.cpu.commitStats0.committedInstType::SimdStridedStore            0      0.00%    100.00% # Class of committed instruction. (Count)
system.cpu.commitStats0.committedInstType::SimdIndexedLoad            0      0.00%    100.00% # Class of committed instruction. (Count)
system.cpu.commitStats0.committedInstType::SimdIndexedStore            0      0.00%    100.00% # Class of committed instruction. (Count)
system.cpu.commitStats0.committedInstType::SimdWholeRegisterLoad            0      0.00%    100.00% # Class of committed instruction. (Count)
system.cpu.commitStats0.committedInstType::SimdWholeRegisterStore            0      0.00%    100.00% # Class of committed instruction. (Count)
system.cpu.commitStats0.committedInstType::SimdUnitStrideFaultOnlyFirstLoad            0      0.00%    100.00% # Class of committed instruction. (Count)
system.cpu.commitStats0.committedInstType::SimdUnitStrideSegmentedLoad            0      0.00%    100.00% # Class of committed instruction. (Count)
system.cpu.commitStats0.committedInstType::SimdUnitStrideSegmentedStore            0      0.00%    100.00% # Class of committed instruction. (Count)
system.cpu.commitStats0.committedInstType::SimdExt            0      0.00%    100.00% # Class of committed instruction. (Count)
system.cpu.commitStats0.committedInstType::SimdFloatExt            0      0.00%    100.00% # Class of committed instruction. (Count)
system.cpu.commitStats0.committedInstType::SimdConfig            0      0.00%    100.00% # Class of committed instruction. (Count)
system.cpu.commitStats0.committedInstType::total    506600454                       # Class of committed instruction. (Count)
system.cpu.commitStats0.committedControl::IsControl     44400055                       # Class of control type instructions committed (Count)
system.cpu.commitStats0.committedControl::IsDirectControl     43025011                       # Class of control type instructions committed (Count)
system.cpu.commitStats0.committedControl::IsIndirectControl      1375044                       # Class of control type instructions committed (Count)
system.cpu.commitStats0.committedControl::IsCondControl     41325344                       # Class of control type instructions committed (Count)
system.cpu.commitStats0.committedControl::IsUncondControl      3074711                       # Class of control type instructions committed (Count)
system.cpu.commitStats0.committedControl::IsCall      1088906                       # Class of control type instructions committed (Count)
system.cpu.commitStats0.committedControl::IsReturn      1088900                       # Class of control type instructions committed (Count)
system.cpu.dcache.demandHits::cpu.data      119916340                       # number of demand (read+write) hits (Count)
system.cpu.dcache.demandHits::total         119916340                       # number of demand (read+write) hits (Count)
system.cpu.dcache.overallHits::cpu.data     119916340                       # number of overall hits (Count)
system.cpu.dcache.overallHits::total        119916340                       # number of overall hits (Count)
system.cpu.dcache.demandMisses::cpu.data    100130072                       # number of demand (read+write) misses (Count)
system.cpu.dcache.demandMisses::total       100130072                       # number of demand (read+write) misses (Count)
system.cpu.dcache.overallMisses::cpu.data    100130072                       # number of overall misses (Count)
system.cpu.dcache.overallMisses::total      100130072                       # number of overall misses (Count)
system.cpu.dcache.demandMissLatency::cpu.data 9565935247906                       # number of demand (read+write) miss ticks (Tick)
system.cpu.dcache.demandMissLatency::total 9565935247906                       # number of demand (read+write) miss ticks (Tick)
system.cpu.dcache.overallMissLatency::cpu.data 9565935247906                       # number of overall miss ticks (Tick)
system.cpu.dcache.overallMissLatency::total 9565935247906                       # number of overall miss ticks (Tick)
system.cpu.dcache.demandAccesses::cpu.data    220046412                       # number of demand (read+write) accesses (Count)
system.cpu.dcache.demandAccesses::total     220046412                       # number of demand (read+write) accesses (Count)
system.cpu.dcache.overallAccesses::cpu.data    220046412                       # number of overall (read+write) accesses (Count)
system.cpu.dcache.overallAccesses::total    220046412                       # number of overall (read+write) accesses (Count)
system.cpu.dcache.demandMissRate::cpu.data     0.455041                       # miss rate for demand accesses (Ratio)
system.cpu.dcache.demandMissRate::total      0.455041                       # miss rate for demand accesses (Ratio)
system.cpu.dcache.overallMissRate::cpu.data     0.455041                       # miss rate for overall accesses (Ratio)
system.cpu.dcache.overallMissRate::total     0.455041                       # miss rate for overall accesses (Ratio)
system.cpu.dcache.demandAvgMissLatency::cpu.data 95535.088079                       # average overall miss latency in ticks ((Tick/Count))
system.cpu.dcache.demandAvgMissLatency::total 95535.088079                       # average overall miss latency in ticks ((Tick/Count))
system.cpu.dcache.overallAvgMissLatency::cpu.data 95535.088079                       # average overall miss latency ((Tick/Count))
system.cpu.dcache.overallAvgMissLatency::total 95535.088079                       # average overall miss latency ((Tick/Count))
system.cpu.dcache.blockedCycles::no_mshrs   1359493195                       # number of cycles access was blocked (Cycle)
system.cpu.dcache.blockedCycles::no_targets        18446                       # number of cycles access was blocked (Cycle)
system.cpu.dcache.blockedCauses::no_mshrs     41012347                       # number of times access was blocked (Count)
system.cpu.dcache.blockedCauses::no_targets          118                       # number of times access was blocked (Count)
system.cpu.dcache.avgBlocked::no_mshrs      33.148388                       # average number of cycles each access was blocked ((Cycle/Count))
system.cpu.dcache.avgBlocked::no_targets   156.322034                       # average number of cycles each access was blocked ((Cycle/Count))
system.cpu.dcache.writebacks::writebacks     46597366                       # number of writebacks (Count)
system.cpu.dcache.writebacks::total          46597366                       # number of writebacks (Count)
system.cpu.dcache.demandMshrHits::cpu.data     53419039                       # number of demand (read+write) MSHR hits (Count)
system.cpu.dcache.demandMshrHits::total      53419039                       # number of demand (read+write) MSHR hits (Count)
system.cpu.dcache.overallMshrHits::cpu.data     53419039                       # number of overall MSHR hits (Count)
[...]
system.mem_ctrls.dram.perBankWrBursts::18       481667                       # Per bank write bursts (Count)
system.mem_ctrls.dram.perBankWrBursts::19       481523                       # Per bank write bursts (Count)
system.mem_ctrls.dram.perBankWrBursts::20       481479                       # Per bank write bursts (Count)
system.mem_ctrls.dram.perBankWrBursts::21       481605                       # Per bank write bursts (Count)
system.mem_ctrls.dram.perBankWrBursts::22       481489                       # Per bank write bursts (Count)
system.mem_ctrls.dram.perBankWrBursts::23       481435                       # Per bank write bursts (Count)
system.mem_ctrls.dram.perBankWrBursts::24       481465                       # Per bank write bursts (Count)
system.mem_ctrls.dram.perBankWrBursts::25       481408                       # Per bank write bursts (Count)
system.mem_ctrls.dram.perBankWrBursts::26       481663                       # Per bank write bursts (Count)
system.mem_ctrls.dram.perBankWrBursts::27       481497                       # Per bank write bursts (Count)
system.mem_ctrls.dram.perBankWrBursts::28       481642                       # Per bank write bursts (Count)
system.mem_ctrls.dram.perBankWrBursts::29       481370                       # Per bank write bursts (Count)
system.mem_ctrls.dram.perBankWrBursts::30       481170                       # Per bank write bursts (Count)
system.mem_ctrls.dram.perBankWrBursts::31       481208                       # Per bank write bursts (Count)
system.mem_ctrls.dram.totQLat            1447183377618                       # Total ticks spent queuing (Tick)
system.mem_ctrls.dram.totBusLat           51783428340                       # Total ticks spent in databus transfers (Tick)
system.mem_ctrls.dram.totMemAccLat       1719030835158                       # Total ticks spent from burst creation until serviced by the DRAM (Tick)
system.mem_ctrls.dram.avgQLat                93118.88                       # Average queueing delay per DRAM burst ((Tick/Count))
system.mem_ctrls.dram.avgBusLat               3332.00                       # Average bus latency per DRAM burst ((Tick/Count))
system.mem_ctrls.dram.avgMemAccLat          110610.88                       # Average memory access latency per DRAM burst ((Tick/Count))
system.mem_ctrls.dram.readRowHits                   0                       # Number of row buffer hits during reads (Count)
system.mem_ctrls.dram.writeRowHits                  0                       # Number of row buffer hits during writes (Count)
system.mem_ctrls.dram.readRowHitRate             0.00                       # Row buffer hit rate for reads (Ratio)
system.mem_ctrls.dram.writeRowHitRate            0.00                       # Row buffer hit rate for writes (Ratio)
system.mem_ctrls.dram.bytesPerActivate::samples     30946588                       # Bytes accessed per row activation (Byte)
system.mem_ctrls.dram.bytesPerActivate::mean           64                       # Bytes accessed per row activation (Byte)
system.mem_ctrls.dram.bytesPerActivate::gmean    64.000000                       # Bytes accessed per row activation (Byte)
system.mem_ctrls.dram.bytesPerActivate::64-71     30946588    100.00%    100.00% # Bytes accessed per row activation (Byte)
system.mem_ctrls.dram.bytesPerActivate::total     30946588                       # Bytes accessed per row activation (Byte)
system.mem_ctrls.dram.dramBytesRead         994639680                       # Total bytes read (Byte)
system.mem_ctrls.dram.dramBytesWritten      985941952                       # Total bytes written (Byte)
system.mem_ctrls.dram.avgRdBW             1178.288375                       # Average DRAM read bandwidth in MiBytes/s ((Byte/Second))
system.mem_ctrls.dram.avgWrBW             1167.984713                       # Average DRAM write bandwidth in MiBytes/s ((Byte/Second))
system.mem_ctrls.dram.peakBW                 19207.00                       # Theoretical peak bandwidth in MiByte/s ((Byte/Second))
system.mem_ctrls.dram.busUtil                   12.22                       # Data bus utilization in percentage (Ratio)
system.mem_ctrls.dram.busUtilRead                6.13                       # Data bus utilization in percentage for reads (Ratio)
system.mem_ctrls.dram.busUtilWrite               6.08                       # Data bus utilization in percentage for writes (Ratio)
system.mem_ctrls.dram.pageHitRate                0.00                       # Row buffer hit rate, read and write combined (Ratio)
system.mem_ctrls.dram.power_state.pwrStateResidencyTicks::UNDEFINED 844139432000                       # Cumulative time (in ticks) in various power states (Tick)
system.mem_ctrls.dram.rank0.actEnergy    24127307934.912045                       # Energy for activate commands per rank (pJ) (Joule)
system.mem_ctrls.dram.rank0.preEnergy    42593978238.941185                       # Energy for precharge commands per rank (pJ) (Joule)
system.mem_ctrls.dram.rank0.readEnergy   21313105946.161690                       # Energy for read commands per rank (pJ) (Joule)
system.mem_ctrls.dram.rank0.writeEnergy  18169772502.671146                       # Energy for write commands per rank (pJ) (Joule)
system.mem_ctrls.dram.rank0.refreshEnergy 73275582832.031052                       # Energy for refresh commands per rank (pJ) (Joule)
system.mem_ctrls.dram.rank0.actBackEnergy 160596028442.983215                       # Energy for active background per rank (pJ) (Joule)
system.mem_ctrls.dram.rank0.preBackEnergy 164658786545.418121                       # Energy for precharge background per rank (pJ) (Joule)
system.mem_ctrls.dram.rank0.actPowerDownEnergy            0                       # Energy for active power-down per rank (pJ) (Joule)
system.mem_ctrls.dram.rank0.prePowerDownEnergy            0                       # Energy for precharge power-down per rank (pJ) (Joule)
system.mem_ctrls.dram.rank0.selfRefreshEnergy            0                       # Energy for self refresh per rank (pJ) (Joule)
system.mem_ctrls.dram.rank0.totalEnergy  504734562443.207153                       # Total energy per rank (pJ) (Joule)
system.mem_ctrls.dram.rank0.averagePower   597.927953                       # Core power per rank (mW) (Watt)
system.mem_ctrls.dram.rank0.totalIdleTime            0                       # Total Idle time Per DRAM Rank (Tick)
system.mem_ctrls.dram.rank0.pwrStateTime::IDLE 430911808556                       # Time in different power states (Tick)
system.mem_ctrls.dram.rank0.pwrStateTime::REF  37946650000                       # Time in different power states (Tick)
system.mem_ctrls.dram.rank0.pwrStateTime::SREF            0                       # Time in different power states (Tick)
system.mem_ctrls.dram.rank0.pwrStateTime::PRE_PDN            0                       # Time in different power states (Tick)
system.mem_ctrls.dram.rank0.pwrStateTime::ACT 375280973444                       # Time in different power states (Tick)
system.mem_ctrls.dram.rank0.pwrStateTime::ACT_PDN            0                       # Time in different power states (Tick)
system.mem_ctrls.dram.rank1.actEnergy    24130055555.424122                       # Energy for activate commands per rank (pJ) (Joule)
system.mem_ctrls.dram.rank1.preEnergy    42598823340.125229                       # Energy for precharge commands per rank (pJ) (Joule)
system.mem_ctrls.dram.rank1.readEnergy   21315012263.330090                       # Energy for read commands per rank (pJ) (Joule)
system.mem_ctrls.dram.rank1.writeEnergy  18172284897.311352                       # Energy for write commands per rank (pJ) (Joule)
system.mem_ctrls.dram.rank1.refreshEnergy 73275582832.031052                       # Energy for refresh commands per rank (pJ) (Joule)
system.mem_ctrls.dram.rank1.actBackEnergy 160605503503.443237                       # Energy for active background per rank (pJ) (Joule)
system.mem_ctrls.dram.rank1.preBackEnergy 164652245386.928375                       # Energy for precharge background per rank (pJ) (Joule)
system.mem_ctrls.dram.rank1.actPowerDownEnergy            0                       # Energy for active power-down per rank (pJ) (Joule)
system.mem_ctrls.dram.rank1.prePowerDownEnergy            0                       # Energy for precharge power-down per rank (pJ) (Joule)
system.mem_ctrls.dram.rank1.selfRefreshEnergy            0                       # Energy for self refresh per rank (pJ) (Joule)
system.mem_ctrls.dram.rank1.totalEnergy  504749507778.683472                       # Total energy per rank (pJ) (Joule)
system.mem_ctrls.dram.rank1.averagePower   597.945658                       # Core power per rank (mW) (Watt)
system.mem_ctrls.dram.rank1.totalIdleTime            0                       # Total Idle time Per DRAM Rank (Tick)
system.mem_ctrls.dram.rank1.pwrStateTime::IDLE 430881267262                       # Time in different power states (Tick)
system.mem_ctrls.dram.rank1.pwrStateTime::REF  37946650000                       # Time in different power states (Tick)
system.mem_ctrls.dram.rank1.pwrStateTime::SREF            0                       # Time in different power states (Tick)
system.mem_ctrls.dram.rank1.pwrStateTime::PRE_PDN            0                       # Time in different power states (Tick)
system.mem_ctrls.dram.rank1.pwrStateTime::ACT 375311514738                       # Time in different power states (Tick)
system.mem_ctrls.dram.rank1.pwrStateTime::ACT_PDN            0                       # Time in different power states (Tick)
system.mem_ctrls.power_state.pwrStateResidencyTicks::UNDEFINED 844139432000                       # Cumulative time (in ticks) in various power states (Tick)
system.membus.transDist::ReadResp                6289                       # Transaction distribution (Count)
system.membus.transDist::WritebackDirty      15405404                       # Transaction distribution (Count)
system.membus.transDist::CleanEvict              5374                       # Transaction distribution (Count)
system.membus.transDist::ReadExReq           15534956                       # Transaction distribution (Count)
system.membus.transDist::ReadExResp          15534955                       # Transaction distribution (Count)
system.membus.transDist::ReadSharedReq           6289                       # Transaction distribution (Count)
system.membus.transDist::InvalidateReq           1119                       # Transaction distribution (Count)
system.membus.pktCount_system.l2.mem_side_port::system.mem_ctrls.port     46494386                       # Packet count per connected requestor and responder (Count)
system.membus.pktCount::total                46494386                       # Packet count per connected requestor and responder (Count)
system.membus.pktSize_system.l2.mem_side_port::system.mem_ctrls.port   1980585472                       # Cumulative packet size per connected requestor and responder (Byte)
system.membus.pktSize::total               1980585472                       # Cumulative packet size per connected requestor and responder (Byte)
system.membus.snoops                                0                       # Total snoops (Count)
system.membus.snoopTraffic                          0                       # Total snoop traffic (Byte)
system.membus.snoopFanout::samples           15542364                       # Request fanout histogram (Count)
system.membus.snoopFanout::mean                     0                       # Request fanout histogram (Count)
system.membus.snoopFanout::stdev                    0                       # Request fanout histogram (Count)
system.membus.snoopFanout::underflows               0      0.00%      0.00% # Request fanout histogram (Count)
system.membus.snoopFanout::0                 15542364    100.00%    100.00% # Request fanout histogram (Count)
system.membus.snoopFanout::1                        0      0.00%    100.00% # Request fanout histogram (Count)
system.membus.snoopFanout::overflows                0      0.00%    100.00% # Request fanout histogram (Count)
system.membus.snoopFanout::min_value                0                       # Request fanout histogram (Count)
system.membus.snoopFanout::max_value                0                       # Request fanout histogram (Count)
system.membus.snoopFanout::total             15542364                       # Request fanout histogram (Count)
system.membus.power_state.pwrStateResidencyTicks::UNDEFINED 844139432000                       # Cumulative time (in ticks) in various power states (Tick)
system.membus.reqLayer0.occupancy         96498939500                       # Layer occupancy (ticks) (Tick)
system.membus.reqLayer0.utilization               0.1                       # Layer utilization (Ratio)
system.membus.respLayer1.occupancy        82667857574                       # Layer occupancy (ticks) (Tick)
system.membus.respLayer1.utilization              0.1                       # Layer utilization (Ratio)
system.membus.snoop_filter.totRequests       30953142                       # Total number of requests made to the snoop filter. (Count)
system.membus.snoop_filter.hitSingleRequests     15410778                       # Number of requests hitting in the snoop filter with a single holder of the requested data. (Count)
system.membus.snoop_filter.hitMultiRequests            0                       # Number of requests hitting in the snoop filter with multiple (>1) holders of the requested data. (Count)
system.membus.snoop_filter.totSnoops                0                       # Total number of snoops made to the snoop filter. (Count)
system.membus.snoop_filter.hitSingleSnoops            0                       # Number of snoops hitting in the snoop filter with a single holder of the requested data. (Count)
system.membus.snoop_filter.hitMultiSnoops            0                       # Number of snoops hitting in the snoop filter with multiple (>1) holders of the requested data. (Count)
system.tol2bus.transDist::ReadResp             473502                       # Transaction distribution (Count)
system.tol2bus.transDist::WritebackDirty     62002771                       # Transaction distribution (Count)
system.tol2bus.transDist::WritebackClean       221071                       # Transaction distribution (Count)
system.tol2bus.transDist::CleanEvict           119129                       # Transaction distribution (Count)
system.tol2bus.transDist::UpgradeReq                1                       # Transaction distribution (Count)
system.tol2bus.transDist::UpgradeResp               1                       # Transaction distribution (Count)
system.tol2bus.transDist::ReadExReq          46457718                       # Transaction distribution (Count)
system.tol2bus.transDist::ReadExResp         46457714                       # Transaction distribution (Count)
system.tol2bus.transDist::ReadCleanReq         221584                       # Transaction distribution (Count)
system.tol2bus.transDist::ReadSharedReq        251918                       # Transaction distribution (Count)
system.tol2bus.transDist::InvalidateReq          1398                       # Transaction distribution (Count)
system.tol2bus.transDist::InvalidateResp         1398                       # Transaction distribution (Count)
system.tol2bus.pktCount_system.cpu.icache.mem_side_port::system.l2.cpu_side_port       664238                       # Packet count per connected requestor and responder (Count)
system.tol2bus.pktCount_system.cpu.dcache.mem_side_port::system.l2.cpu_side_port    140132584                       # Packet count per connected requestor and responder (Count)
system.tol2bus.pktCount::total              140796822                       # Packet count per connected requestor and responder (Count)
system.tol2bus.pktSize_system.cpu.icache.mem_side_port::system.l2.cpu_side_port     28329856                       # Cumulative packet size per connected requestor and responder (Byte)
system.tol2bus.pktSize_system.cpu.dcache.mem_side_port::system.l2.cpu_side_port   5971647872                       # Cumulative packet size per connected requestor and responder (Byte)
system.tol2bus.pktSize::total              5999977728                       # Cumulative packet size per connected requestor and responder (Byte)
system.tol2bus.snoops                        15411383                       # Total snoops (Count)
system.tol2bus.snoopTraffic                 985945984                       # Total snoop traffic (Byte)
system.tol2bus.snoopFanout::samples          62344001                       # Request fanout histogram (Count)
system.tol2bus.snoopFanout::mean             0.000032                       # Request fanout histogram (Count)
system.tol2bus.snoopFanout::stdev            0.005641                       # Request fanout histogram (Count)
system.tol2bus.snoopFanout::underflows              0      0.00%      0.00% # Request fanout histogram (Count)
system.tol2bus.snoopFanout::0                62342017    100.00%    100.00% # Request fanout histogram (Count)
system.tol2bus.snoopFanout::1                    1984      0.00%    100.00% # Request fanout histogram (Count)
system.tol2bus.snoopFanout::2                       0      0.00%    100.00% # Request fanout histogram (Count)
system.tol2bus.snoopFanout::overflows               0      0.00%    100.00% # Request fanout histogram (Count)
system.tol2bus.snoopFanout::min_value               0                       # Request fanout histogram (Count)
system.tol2bus.snoopFanout::max_value               1                       # Request fanout histogram (Count)
system.tol2bus.snoopFanout::total            62344001                       # Request fanout histogram (Count)
system.tol2bus.power_state.pwrStateResidencyTicks::UNDEFINED 844139432000                       # Cumulative time (in ticks) in various power states (Tick)
system.tol2bus.reqLayer0.occupancy        93750541000                       # Layer occupancy (ticks) (Tick)
system.tol2bus.reqLayer0.utilization              0.1                       # Layer utilization (Ratio)
system.tol2bus.respLayer0.occupancy         332377996                       # Layer occupancy (ticks) (Tick)
system.tol2bus.respLayer0.utilization             0.0                       # Layer utilization (Ratio)
system.tol2bus.respLayer1.occupancy       70065150494                       # Layer occupancy (ticks) (Tick)
system.tol2bus.respLayer1.utilization             0.1                       # Layer utilization (Ratio)
system.tol2bus.snoop_filter.totRequests      93864208                       # Total number of requests made to the snoop filter. (Count)
system.tol2bus.snoop_filter.hitSingleRequests     46931589                       # Number of requests hitting in the snoop filter with a single holder of the requested data. (Count)
system.tol2bus.snoop_filter.hitMultiRequests         1380                       # Number of requests hitting in the snoop filter with multiple (>1) holders of the requested data. (Count)
system.tol2bus.snoop_filter.totSnoops             604                       # Total number of snoops made to the snoop filter. (Count)
system.tol2bus.snoop_filter.hitSingleSnoops          604                       # Number of snoops hitting in the snoop filter with a single holder of the requested data. (Count)
system.tol2bus.snoop_filter.hitMultiSnoops            0                       # Number of snoops hitting in the snoop filter with multiple (>1) holders of the requested data. (Count)
system.voltage_domain.voltage                       1                       # Voltage in Volts (Volt)
system.workload.inst.arm                            0                       # number of arm instructions executed (Count)
system.workload.inst.quiesce                        0                       # number of quiesce instructions executed (Count)

---------- End Simulation Statistics   ----------
