
---------- Begin Simulation Statistics ----------
final_tick                               2100617722000                       # Number of ticks from beginning of simulation (restored from checkpoints and never reset)
host_inst_rate                                  33282                       # Simulator instruction rate (inst/s)
host_mem_usage                                8674824                       # Number of bytes of host memory used
host_op_rate                                    81405                       # Simulator op (including micro ops) rate (op/s)
host_seconds                                 15023.28                       # Real time elapsed on the host
host_tick_rate                              139824129                       # Simulator tick rate (ticks/s)
sim_freq                                 1000000000000                       # Frequency of simulated ticks
sim_insts                                   500000002                       # Number of instructions simulated
sim_ops                                    1222974953                       # Number of ops (including micro ops) simulated
sim_seconds                                  2.100618                       # Number of seconds simulated
sim_ticks                                2100617722000                       # Number of ticks simulated
system.cpu.cc_regfile_reads                  39112705                       # number of cc regfile reads
system.cpu.cc_regfile_writes                 39108002                       # number of cc regfile writes
system.cpu.committedInsts                   500000002                       # Number of Instructions Simulated
system.cpu.committedOps                    1222974953                       # Number of Ops (including micro ops) Simulated
system.cpu.cpi                               8.402471                       # CPI: Cycles Per Instruction
system.cpu.cpi_total                         8.402471                       # CPI: Total CPI of All Threads
system.cpu.dcache.MSHRs.leapFrogMisses           1665                       # number of false blocks from MSHR
system.cpu.icache.MSHRs.leapFrogMisses              0                       # number of false blocks from MSHR
system.cpu.idleCycles                          161141                       # Total number of cycles that the CPU has spent unscheduled due to idling
system.cpu.iew.branchMispredicts               122699                       # Number of branch mispredicts detected at execute
system.cpu.iew.exec_branches                 17026250                       # Number of branches executed
system.cpu.iew.exec_nop                         14264                       # number of nop insts executed
system.cpu.iew.exec_rate                     0.307035                       # Inst execution rate
system.cpu.iew.exec_refs                    860053972                       # number of memory reference insts executed
system.cpu.iew.exec_stores                  819978290                       # Number of stores executed
system.cpu.iew.exec_swp                             0                       # number of swp insts executed
system.cpu.iew.iewBlockCycles                86522196                       # Number of cycles IEW is blocking
system.cpu.iew.iewDispLoadInsts              38186746                       # Number of dispatched load instructions
system.cpu.iew.iewDispNonSpecInsts               1751                       # Number of dispatched non-speculative instructions
system.cpu.iew.iewDispSquashedInsts             80692                       # Number of squashed instructions skipped by dispatch
system.cpu.iew.iewDispStoreInsts            820319258                       # Number of dispatched store instructions
system.cpu.iew.iewDispatchedInsts          1288527640                       # Number of instructions dispatched to IQ
system.cpu.iew.iewExecLoadInsts              40075682                       # Number of load instructions executed
system.cpu.iew.iewExecSquashedInsts            239057                       # Number of squashed instructions skipped in execute
system.cpu.iew.iewExecutedInsts            1289925908                       # Number of executed instructions
system.cpu.iew.iewIQFullEvents                7791792                       # Number of times the IQ has become full, causing a stall
system.cpu.iew.iewIdleCycles                        0                       # Number of cycles IEW is idle
system.cpu.iew.iewLSQFullEvents            1262176206                       # Number of times the LSQ has become full, causing a stall
system.cpu.iew.iewSquashCycles                1613625                       # Number of cycles IEW is squashing
system.cpu.iew.iewUnblockCycles            1277152703                       # Number of cycles IEW is unblocking
system.cpu.iew.memOrderViolationEvents           1108                       # Number of memory order violations
system.cpu.iew.predictedNotTakenIncorrect         3584                       # Number of branches that were predicted not taken incorrectly
system.cpu.iew.predictedTakenIncorrect         119115                       # Number of branches that were predicted taken incorrectly
system.cpu.iew.wb_consumers                 801795994                       # num instructions consuming a value
system.cpu.iew.wb_count                    1266234850                       # cumulative count of insts written-back
system.cpu.iew.wb_fanout                     0.458882                       # average fanout of values written-back
system.cpu.iew.wb_producers                 367929917                       # num instructions producing a value
system.cpu.iew.wb_rate                       0.301396                       # insts written-back per cycle
system.cpu.iew.wb_sent                     1287984810                       # cumulative count of insts sent to commit
system.cpu.int_regfile_reads               1182063788                       # number of integer regfile reads
system.cpu.int_regfile_writes               312501154                       # number of integer regfile writes
system.cpu.ipc                               0.119013                       # IPC: Instructions Per Cycle
system.cpu.ipc_total                         0.119013                       # IPC: Total IPC of All Threads
system.cpu.iq.FU_type_0::No_OpClass               990      0.00%      0.00% # Type of FU issued
system.cpu.iq.FU_type_0::IntAlu             316179162     24.51%     24.51% # Type of FU issued
system.cpu.iq.FU_type_0::IntMult                  815      0.00%     24.51% # Type of FU issued
system.cpu.iq.FU_type_0::IntDiv                    31      0.00%     24.51% # Type of FU issued
system.cpu.iq.FU_type_0::FloatAdd            27139552      2.10%     26.61% # Type of FU issued
system.cpu.iq.FU_type_0::FloatCmp             1291815      0.10%     26.71% # Type of FU issued
system.cpu.iq.FU_type_0::FloatCvt             2583588      0.20%     26.91% # Type of FU issued
system.cpu.iq.FU_type_0::FloatMult           16841115      1.31%     28.22% # Type of FU issued
system.cpu.iq.FU_type_0::FloatMultAcc        31002953      2.40%     30.62% # Type of FU issued
system.cpu.iq.FU_type_0::FloatDiv            15501479      1.20%     31.82% # Type of FU issued
system.cpu.iq.FU_type_0::FloatMisc           16805352      1.30%     33.12% # Type of FU issued
system.cpu.iq.FU_type_0::FloatSqrt            2583579      0.20%     33.32% # Type of FU issued
system.cpu.iq.FU_type_0::SimdAdd                    2      0.00%     33.32% # Type of FU issued
system.cpu.iq.FU_type_0::SimdAddAcc                 0      0.00%     33.32% # Type of FU issued
system.cpu.iq.FU_type_0::SimdAlu                  126      0.00%     33.32% # Type of FU issued
system.cpu.iq.FU_type_0::SimdCmp                  305      0.00%     33.32% # Type of FU issued
system.cpu.iq.FU_type_0::SimdCvt                    1      0.00%     33.32% # Type of FU issued
system.cpu.iq.FU_type_0::SimdMisc                 329      0.00%     33.32% # Type of FU issued
system.cpu.iq.FU_type_0::SimdMult                   0      0.00%     33.32% # Type of FU issued
system.cpu.iq.FU_type_0::SimdMultAcc                0      0.00%     33.32% # Type of FU issued
system.cpu.iq.FU_type_0::SimdShift                 41      0.00%     33.32% # Type of FU issued
system.cpu.iq.FU_type_0::SimdShiftAcc               0      0.00%     33.32% # Type of FU issued
system.cpu.iq.FU_type_0::SimdDiv                    0      0.00%     33.32% # Type of FU issued
system.cpu.iq.FU_type_0::SimdSqrt                   0      0.00%     33.32% # Type of FU issued
system.cpu.iq.FU_type_0::SimdFloatAdd               0      0.00%     33.32% # Type of FU issued
system.cpu.iq.FU_type_0::SimdFloatAlu               0      0.00%     33.32% # Type of FU issued
system.cpu.iq.FU_type_0::SimdFloatCmp               0      0.00%     33.32% # Type of FU issued
system.cpu.iq.FU_type_0::SimdFloatCvt               0      0.00%     33.32% # Type of FU issued
system.cpu.iq.FU_type_0::SimdFloatDiv               0      0.00%     33.32% # Type of FU issued
system.cpu.iq.FU_type_0::SimdFloatMisc              0      0.00%     33.32% # Type of FU issued
system.cpu.iq.FU_type_0::SimdFloatMult              0      0.00%     33.32% # Type of FU issued
system.cpu.iq.FU_type_0::SimdFloatMultAcc            0      0.00%     33.32% # Type of FU issued
system.cpu.iq.FU_type_0::SimdFloatSqrt              0      0.00%     33.32% # Type of FU issued
system.cpu.iq.FU_type_0::SimdReduceAdd              0      0.00%     33.32% # Type of FU issued
system.cpu.iq.FU_type_0::SimdReduceAlu              0      0.00%     33.32% # Type of FU issued
system.cpu.iq.FU_type_0::SimdReduceCmp              0      0.00%     33.32% # Type of FU issued
system.cpu.iq.FU_type_0::SimdFloatReduceAdd            0      0.00%     33.32% # Type of FU issued
system.cpu.iq.FU_type_0::SimdFloatReduceCmp            0      0.00%     33.32% # Type of FU issued
system.cpu.iq.FU_type_0::SimdAes                    0      0.00%     33.32% # Type of FU issued
system.cpu.iq.FU_type_0::SimdAesMix                 0      0.00%     33.32% # Type of FU issued
system.cpu.iq.FU_type_0::SimdSha1Hash               0      0.00%     33.32% # Type of FU issued
system.cpu.iq.FU_type_0::SimdSha1Hash2              0      0.00%     33.32% # Type of FU issued
system.cpu.iq.FU_type_0::SimdSha256Hash             0      0.00%     33.32% # Type of FU issued
system.cpu.iq.FU_type_0::SimdSha256Hash2            0      0.00%     33.32% # Type of FU issued
system.cpu.iq.FU_type_0::SimdShaSigma2              0      0.00%     33.32% # Type of FU issued
system.cpu.iq.FU_type_0::SimdShaSigma3              0      0.00%     33.32% # Type of FU issued
system.cpu.iq.FU_type_0::SimdPredAlu                0      0.00%     33.32% # Type of FU issued
system.cpu.iq.FU_type_0::MemRead             40084977      3.11%     36.43% # Type of FU issued
system.cpu.iq.FU_type_0::MemWrite           820148758     63.57%    100.00% # Type of FU issued
system.cpu.iq.FU_type_0::FloatMemRead               0      0.00%    100.00% # Type of FU issued
system.cpu.iq.FU_type_0::FloatMemWrite              0      0.00%    100.00% # Type of FU issued
system.cpu.iq.FU_type_0::IprAccess                  0      0.00%    100.00% # Type of FU issued
system.cpu.iq.FU_type_0::InstPrefetch               0      0.00%    100.00% # Type of FU issued
system.cpu.iq.FU_type_0::total             1290164970                       # Type of FU issued
system.cpu.iq.fp_alu_accesses                       0                       # Number of floating point alu accesses
system.cpu.iq.fp_inst_queue_reads                   0                       # Number of floating instruction queue reads
system.cpu.iq.fp_inst_queue_wakeup_accesses            0                       # Number of floating instruction queue wakeup accesses
system.cpu.iq.fp_inst_queue_writes                  0                       # Number of floating instruction queue writes
system.cpu.iq.fu_busy_cnt                   242706592                       # FU busy when requested
system.cpu.iq.fu_busy_rate                   0.188121                       # FU busy rate (busy events/executed inst)
system.cpu.iq.fu_full::No_OpClass                   0      0.00%      0.00% # attempts to use FU when none available
system.cpu.iq.fu_full::IntAlu                    2798      0.00%      0.00% # attempts to use FU when none available
system.cpu.iq.fu_full::IntMult                     39      0.00%      0.00% # attempts to use FU when none available
system.cpu.iq.fu_full::IntDiv                       0      0.00%      0.00% # attempts to use FU when none available
system.cpu.iq.fu_full::FloatAdd                     0      0.00%      0.00% # attempts to use FU when none available
system.cpu.iq.fu_full::FloatCmp                     0      0.00%      0.00% # attempts to use FU when none available
system.cpu.iq.fu_full::FloatCvt                     0      0.00%      0.00% # attempts to use FU when none available
system.cpu.iq.fu_full::FloatMult             30863344     12.72%     12.72% # attempts to use FU when none available
system.cpu.iq.fu_full::FloatMultAcc          47804559     19.70%     32.41% # attempts to use FU when none available
system.cpu.iq.fu_full::FloatDiv              53784226     22.16%     54.57% # attempts to use FU when none available
system.cpu.iq.fu_full::FloatMisc             46510882     19.16%     73.74% # attempts to use FU when none available
system.cpu.iq.fu_full::FloatSqrt              2031128      0.84%     74.57% # attempts to use FU when none available
system.cpu.iq.fu_full::SimdAdd                      0      0.00%     74.57% # attempts to use FU when none available
system.cpu.iq.fu_full::SimdAddAcc                   0      0.00%     74.57% # attempts to use FU when none available
system.cpu.iq.fu_full::SimdAlu                      0      0.00%     74.57% # attempts to use FU when none available
system.cpu.iq.fu_full::SimdCmp                      0      0.00%     74.57% # attempts to use FU when none available
system.cpu.iq.fu_full::SimdCvt                      0      0.00%     74.57% # attempts to use FU when none available
system.cpu.iq.fu_full::SimdMisc                     0      0.00%     74.57% # attempts to use FU when none available
system.cpu.iq.fu_full::SimdMult                     0      0.00%     74.57% # attempts to use FU when none available
system.cpu.iq.fu_full::SimdMultAcc                  0      0.00%     74.57% # attempts to use FU when none available
system.cpu.iq.fu_full::SimdShift                    0      0.00%     74.57% # attempts to use FU when none available
system.cpu.iq.fu_full::SimdShiftAcc                 0      0.00%     74.57% # attempts to use FU when none available
system.cpu.iq.fu_full::SimdDiv                      0      0.00%     74.57% # attempts to use FU when none available
system.cpu.iq.fu_full::SimdSqrt                     0      0.00%     74.57% # attempts to use FU when none available
system.cpu.iq.fu_full::SimdFloatAdd                 0      0.00%     74.57% # attempts to use FU when none available
system.cpu.iq.fu_full::SimdFloatAlu                 0      0.00%     74.57% # attempts to use FU when none available
system.cpu.iq.fu_full::SimdFloatCmp                 0      0.00%     74.57% # attempts to use FU when none available
system.cpu.iq.fu_full::SimdFloatCvt                 0      0.00%     74.57% # attempts to use FU when none available
system.cpu.iq.fu_full::SimdFloatDiv                 0      0.00%     74.57% # attempts to use FU when none available
system.cpu.iq.fu_full::SimdFloatMisc                0      0.00%     74.57% # attempts to use FU when none available
system.cpu.iq.fu_full::SimdFloatMult                0      0.00%     74.57% # attempts to use FU when none available
system.cpu.iq.fu_full::SimdFloatMultAcc             0      0.00%     74.57% # attempts to use FU when none available
system.cpu.iq.fu_full::SimdFloatSqrt                0      0.00%     74.57% # attempts to use FU when none available
system.cpu.iq.fu_full::SimdReduceAdd                0      0.00%     74.57% # attempts to use FU when none available
system.cpu.iq.fu_full::SimdReduceAlu                0      0.00%     74.57% # attempts to use FU when none available
system.cpu.iq.fu_full::SimdReduceCmp                0      0.00%     74.57% # attempts to use FU when none available
system.cpu.iq.fu_full::SimdFloatReduceAdd            0      0.00%     74.57% # attempts to use FU when none available
system.cpu.iq.fu_full::SimdFloatReduceCmp            0      0.00%     74.57% # attempts to use FU when none available
system.cpu.iq.fu_full::SimdAes                      0      0.00%     74.57% # attempts to use FU when none available
system.cpu.iq.fu_full::SimdAesMix                   0      0.00%     74.57% # attempts to use FU when none available
system.cpu.iq.fu_full::SimdSha1Hash                 0      0.00%     74.57% # attempts to use FU when none available
system.cpu.iq.fu_full::SimdSha1Hash2                0      0.00%     74.57% # attempts to use FU when none available
system.cpu.iq.fu_full::SimdSha256Hash               0      0.00%     74.57% # attempts to use FU when none available
system.cpu.iq.fu_full::SimdSha256Hash2              0      0.00%     74.57% # attempts to use FU when none available
system.cpu.iq.fu_full::SimdShaSigma2                0      0.00%     74.57% # attempts to use FU when none available
system.cpu.iq.fu_full::SimdShaSigma3                0      0.00%     74.57% # attempts to use FU when none available
system.cpu.iq.fu_full::SimdPredAlu                  0      0.00%     74.57% # attempts to use FU when none available
system.cpu.iq.fu_full::MemRead                 133451      0.05%     74.63% # attempts to use FU when none available
system.cpu.iq.fu_full::MemWrite              61576165     25.37%    100.00% # attempts to use FU when none available
system.cpu.iq.fu_full::FloatMemRead                 0      0.00%    100.00% # attempts to use FU when none available
system.cpu.iq.fu_full::FloatMemWrite                0      0.00%    100.00% # attempts to use FU when none available
system.cpu.iq.fu_full::IprAccess                    0      0.00%    100.00% # attempts to use FU when none available
system.cpu.iq.fu_full::InstPrefetch                 0      0.00%    100.00% # attempts to use FU when none available
system.cpu.iq.int_alu_accesses              326299226                       # Number of integer alu accesses
system.cpu.iq.int_inst_queue_reads         4853594244                       # Number of integer instruction queue reads
system.cpu.iq.int_inst_queue_wakeup_accesses    324385804                       # Number of integer instruction queue wakeup accesses
system.cpu.iq.int_inst_queue_writes         340133826                       # Number of integer instruction queue writes
system.cpu.iq.iqInstsAdded                 1288511624                       # Number of instructions added to the IQ (excludes non-spec)
system.cpu.iq.iqInstsIssued                1290164970                       # Number of instructions issued
system.cpu.iq.iqNonSpecInstsAdded                1752                       # Number of non-speculative instructions added to the IQ
system.cpu.iq.iqSquashedInstsExamined        65538284                       # Number of squashed instructions iterated over during squash; mainly for profiling
system.cpu.iq.iqSquashedInstsIssued             50502                       # Number of squashed instructions issued
system.cpu.iq.iqSquashedNonSpecRemoved            624                       # Number of squashed non-spec instructions that were removed
system.cpu.iq.iqSquashedOperandsExamined     88654721                       # Number of squashed operands that are examined and possibly removed from graph
system.cpu.iq.issued_per_cycle::samples    4201074305                       # Number of insts issued each cycle
system.cpu.iq.issued_per_cycle::mean         0.307104                       # Number of insts issued each cycle
system.cpu.iq.issued_per_cycle::stdev        1.023650                       # Number of insts issued each cycle
system.cpu.iq.issued_per_cycle::underflows            0      0.00%      0.00% # Number of insts issued each cycle
system.cpu.iq.issued_per_cycle::0          3734520130     88.89%     88.89% # Number of insts issued each cycle
system.cpu.iq.issued_per_cycle::1           149655876      3.56%     92.46% # Number of insts issued each cycle
system.cpu.iq.issued_per_cycle::2            85207746      2.03%     94.48% # Number of insts issued each cycle
system.cpu.iq.issued_per_cycle::3            68391543      1.63%     96.11% # Number of insts issued each cycle
system.cpu.iq.issued_per_cycle::4            84963145      2.02%     98.14% # Number of insts issued each cycle
system.cpu.iq.issued_per_cycle::5            48380362      1.15%     99.29% # Number of insts issued each cycle
system.cpu.iq.issued_per_cycle::6            26730596      0.64%     99.92% # Number of insts issued each cycle
system.cpu.iq.issued_per_cycle::7             3018249      0.07%    100.00% # Number of insts issued each cycle
system.cpu.iq.issued_per_cycle::8              206658      0.00%    100.00% # Number of insts issued each cycle
system.cpu.iq.issued_per_cycle::overflows            0      0.00%    100.00% # Number of insts issued each cycle
system.cpu.iq.issued_per_cycle::min_value            0                       # Number of insts issued each cycle
system.cpu.iq.issued_per_cycle::max_value            8                       # Number of insts issued each cycle
system.cpu.iq.issued_per_cycle::total      4201074305                       # Number of insts issued each cycle
system.cpu.iq.rate                           0.307092                       # Inst issue rate
system.cpu.iq.vec_alu_accesses             1206571346                       # Number of vector alu accesses
system.cpu.iq.vec_inst_queue_reads         2170567090                       # Number of vector instruction queue reads
system.cpu.iq.vec_inst_queue_wakeup_accesses    941849046                       # Number of vector instruction queue wakeup accesses
system.cpu.iq.vec_inst_queue_writes        1013918885                       # Number of vector instruction queue writes
system.cpu.memDep0.conflictingLoads             33860                       # Number of conflicting loads.
system.cpu.memDep0.conflictingStores           145148                       # Number of conflicting stores.
system.cpu.memDep0.insertedLoads             38186746                       # Number of loads inserted to the mem dependence unit.
system.cpu.memDep0.insertedStores           820319258                       # Number of stores inserted to the mem dependence unit.
system.cpu.misc_regfile_reads              6658392383                       # number of misc regfile reads
system.cpu.misc_regfile_writes              102111426                       # number of misc regfile writes
system.cpu.numCycles                       4201235446                       # number of cpu cycles simulated
system.cpu.numWorkItemsCompleted                    0                       # number of work items this cpu completed
system.cpu.numWorkItemsStarted                      0                       # number of work items this cpu started
system.cpu.pred_regfile_reads                     617                       # number of predicate regfile reads
system.cpu.pred_regfile_writes                    211                       # number of predicate regfile writes
system.cpu.timesIdled                            2736                       # Number of times that the entire CPU went into an idle state and unscheduled itself
system.cpu.vec_regfile_reads               1046118172                       # number of vector regfile reads
system.cpu.vec_regfile_writes               151418254                       # number of vector regfile writes
system.cpu.workload.numSyscalls                    65                       # Number of system calls
system.l2.MSHRs.leapFrogMisses                      0                       # number of false blocks from MSHR
system.membus.snoop_filter.hit_multi_requests            0                       # Number of requests hitting in the snoop filter with multiple (>1) holders of the requested data.
system.membus.snoop_filter.hit_multi_snoops            0                       # Number of snoops hitting in the snoop filter with multiple (>1) holders of the requested data.
system.membus.snoop_filter.hit_single_requests     96208139                       # Number of requests hitting in the snoop filter with a single holder of the requested data.
system.membus.snoop_filter.hit_single_snoops            0                       # Number of snoops hitting in the snoop filter with a single holder of the requested data.
system.membus.snoop_filter.tot_requests     192548269                       # Total number of requests made to the snoop filter.
system.membus.snoop_filter.tot_snoops               0                       # Total number of snoops made to the snoop filter.
system.tol2bus.snoop_filter.hit_multi_requests           13                       # Number of requests hitting in the snoop filter with multiple (>1) holders of the requested data.
system.tol2bus.snoop_filter.hit_multi_snoops            0                       # Number of snoops hitting in the snoop filter with multiple (>1) holders of the requested data.
system.tol2bus.snoop_filter.hit_single_requests     96775009                       # Number of requests hitting in the snoop filter with a single holder of the requested data.
system.tol2bus.snoop_filter.hit_single_snoops           56                       # Number of snoops hitting in the snoop filter with a single holder of the requested data.
system.tol2bus.snoop_filter.tot_requests    193543059                       # Total number of requests made to the snoop filter.
system.tol2bus.snoop_filter.tot_snoops             56                       # Total number of snoops made to the snoop filter.
system.clk_domain.clock                          1000                       # Clock period in ticks
system.cpu.branchPred.lookups                17851315                       # Number of BP lookups
system.cpu.branchPred.condPredicted          15220095                       # Number of conditional branches predicted
system.cpu.branchPred.condIncorrect            122235                       # Number of conditional branches incorrect
system.cpu.branchPred.BTBLookups             11218390                       # Number of BTB lookups
system.cpu.branchPred.BTBHits                11212251                       # Number of BTB hits
system.cpu.branchPred.BTBHitPct             99.945277                       # BTB Hit Percentage
system.cpu.branchPred.RASUsed                 1302809                       # Number of times the RAS was used to get a target.
system.cpu.branchPred.RASIncorrect                 24                       # Number of incorrect RAS predictions.
system.cpu.branchPred.indirectLookups            2022                       # Number of indirect predictor lookups.
system.cpu.branchPred.indirectHits                818                       # Number of indirect target hits.
system.cpu.branchPred.indirectMisses             1204                       # Number of indirect misses.
system.cpu.branchPred.indirectMispredicted          443                       # Number of mispredicted indirect branches.
system.cpu.commit.commitSquashedInsts        51184743                       # The number of squashed insts skipped by commit
system.cpu.commit.commitNonSpecStalls            1128                       # The number of times commit has been forced to stall to communicate backwards
system.cpu.commit.branchMispredicts            120568                       # The number of times a branch was mispredicted
system.cpu.commit.numCommittedDist::samples   4194046121                       # Number of insts commited each cycle
system.cpu.commit.numCommittedDist::mean     0.291601                       # Number of insts commited each cycle
system.cpu.commit.numCommittedDist::stdev     1.094348                       # Number of insts commited each cycle
system.cpu.commit.numCommittedDist::underflows            0      0.00%      0.00% # Number of insts commited each cycle
system.cpu.commit.numCommittedDist::0      3809975934     90.84%     90.84% # Number of insts commited each cycle
system.cpu.commit.numCommittedDist::1       104667120      2.50%     93.34% # Number of insts commited each cycle
system.cpu.commit.numCommittedDist::2        70130790      1.67%     95.01% # Number of insts commited each cycle
system.cpu.commit.numCommittedDist::3        55094461      1.31%     96.32% # Number of insts commited each cycle
system.cpu.commit.numCommittedDist::4        34096272      0.81%     97.14% # Number of insts commited each cycle
system.cpu.commit.numCommittedDist::5        83146376      1.98%     99.12% # Number of insts commited each cycle
system.cpu.commit.numCommittedDist::6        16319431      0.39%     99.51% # Number of insts commited each cycle
system.cpu.commit.numCommittedDist::7         2182804      0.05%     99.56% # Number of insts commited each cycle
system.cpu.commit.numCommittedDist::8        18432933      0.44%    100.00% # Number of insts commited each cycle
system.cpu.commit.numCommittedDist::overflows            0      0.00%    100.00% # Number of insts commited each cycle
system.cpu.commit.numCommittedDist::min_value            0                       # Number of insts commited each cycle
system.cpu.commit.numCommittedDist::max_value            8                       # Number of insts commited each cycle
system.cpu.commit.numCommittedDist::total   4194046121                       # Number of insts commited each cycle
system.cpu.commit.instsCommitted            500013778                       # Number of instructions committed
system.cpu.commit.opsCommitted             1222988729                       # Number of ops (including micro ops) committed
system.cpu.commit.memRefs                   808576012                       # Number of memory references committed
system.cpu.commit.loads                      38101210                       # Number of loads committed
system.cpu.commit.amos                             98                       # Number of atomic instructions committed
system.cpu.commit.membars                          66                       # Number of memory barriers committed
system.cpu.commit.branches                   16552610                       # Number of branches committed
system.cpu.commit.vector                    914088467                       # Number of committed Vector instructions.
system.cpu.commit.floating                          0                       # Number of committed floating point instructions.
system.cpu.commit.integer                  1105692121                       # Number of committed integer instructions.
system.cpu.commit.functionCalls               1299741                       # Number of function calls committed.
system.cpu.commit.committedInstType_0::No_OpClass          983      0.00%      0.00% # Class of committed instruction
system.cpu.commit.committedInstType_0::IntAlu    300660935     24.58%     24.58% # Class of committed instruction
system.cpu.commit.committedInstType_0::IntMult          750      0.00%     24.58% # Class of committed instruction
system.cpu.commit.committedInstType_0::IntDiv           23      0.00%     24.58% # Class of committed instruction
system.cpu.commit.committedInstType_0::FloatAdd     27139537      2.22%     26.80% # Class of committed instruction
system.cpu.commit.committedInstType_0::FloatCmp      1291814      0.11%     26.91% # Class of committed instruction
system.cpu.commit.committedInstType_0::FloatCvt      2583587      0.21%     27.12% # Class of committed instruction
system.cpu.commit.committedInstType_0::FloatMult     16841110      1.38%     28.50% # Class of committed instruction
system.cpu.commit.committedInstType_0::FloatMultAcc     31002942      2.54%     31.03% # Class of committed instruction
system.cpu.commit.committedInstType_0::FloatDiv     15501476      1.27%     32.30% # Class of committed instruction
system.cpu.commit.committedInstType_0::FloatMisc     16805315      1.37%     33.67% # Class of committed instruction
system.cpu.commit.committedInstType_0::FloatSqrt      2583579      0.21%     33.89% # Class of committed instruction
system.cpu.commit.committedInstType_0::SimdAdd            1      0.00%     33.89% # Class of committed instruction
system.cpu.commit.committedInstType_0::SimdAddAcc            0      0.00%     33.89% # Class of committed instruction
system.cpu.commit.committedInstType_0::SimdAlu          119      0.00%     33.89% # Class of committed instruction
system.cpu.commit.committedInstType_0::SimdCmp          252      0.00%     33.89% # Class of committed instruction
system.cpu.commit.committedInstType_0::SimdCvt            1      0.00%     33.89% # Class of committed instruction
system.cpu.commit.committedInstType_0::SimdMisc          263      0.00%     33.89% # Class of committed instruction
system.cpu.commit.committedInstType_0::SimdMult            0      0.00%     33.89% # Class of committed instruction
system.cpu.commit.committedInstType_0::SimdMultAcc            0      0.00%     33.89% # Class of committed instruction
system.cpu.commit.committedInstType_0::SimdShift           30      0.00%     33.89% # Class of committed instruction
system.cpu.commit.committedInstType_0::SimdShiftAcc            0      0.00%     33.89% # Class of committed instruction
system.cpu.commit.committedInstType_0::SimdDiv            0      0.00%     33.89% # Class of committed instruction
system.cpu.commit.committedInstType_0::SimdSqrt            0      0.00%     33.89% # Class of committed instruction
system.cpu.commit.committedInstType_0::SimdFloatAdd            0      0.00%     33.89% # Class of committed instruction
system.cpu.commit.committedInstType_0::SimdFloatAlu            0      0.00%     33.89% # Class of committed instruction
system.cpu.commit.committedInstType_0::SimdFloatCmp            0      0.00%     33.89% # Class of committed instruction
system.cpu.commit.committedInstType_0::SimdFloatCvt            0      0.00%     33.89% # Class of committed instruction
system.cpu.commit.committedInstType_0::SimdFloatDiv            0      0.00%     33.89% # Class of committed instruction
system.cpu.commit.committedInstType_0::SimdFloatMisc            0      0.00%     33.89% # Class of committed instruction
system.cpu.commit.committedInstType_0::SimdFloatMult            0      0.00%     33.89% # Class of committed instruction
system.cpu.commit.committedInstType_0::SimdFloatMultAcc            0      0.00%     33.89% # Class of committed instruction
system.cpu.commit.committedInstType_0::SimdFloatSqrt            0      0.00%     33.89% # Class of committed instruction
system.cpu.commit.committedInstType_0::SimdReduceAdd            0      0.00%     33.89% # Class of committed instruction
system.cpu.commit.committedInstType_0::SimdReduceAlu            0      0.00%     33.89% # Class of committed instruction
system.cpu.commit.committedInstType_0::SimdReduceCmp            0      0.00%     33.89% # Class of committed instruction
system.cpu.commit.committedInstType_0::SimdFloatReduceAdd            0      0.00%     33.89% # Class of committed instruction
system.cpu.commit.committedInstType_0::SimdFloatReduceCmp            0      0.00%     33.89% # Class of committed instruction
system.cpu.commit.committedInstType_0::SimdAes            0      0.00%     33.89% # Class of committed instruction
system.cpu.commit.committedInstType_0::SimdAesMix            0      0.00%     33.89% # Class of committed instruction
system.cpu.commit.committedInstType_0::SimdSha1Hash            0      0.00%     33.89% # Class of committed instruction
system.cpu.commit.committedInstType_0::SimdSha1Hash2            0      0.00%     33.89% # Class of committed instruction
system.cpu.commit.committedInstType_0::SimdSha256Hash            0      0.00%     33.89% # Class of committed instruction
system.cpu.commit.committedInstType_0::SimdSha256Hash2            0      0.00%     33.89% # Class of committed instruction
system.cpu.commit.committedInstType_0::SimdShaSigma2            0      0.00%     33.89% # Class of committed instruction
system.cpu.commit.committedInstType_0::SimdShaSigma3            0      0.00%     33.89% # Class of committed instruction
system.cpu.commit.committedInstType_0::SimdPredAlu            0      0.00%     33.89% # Class of committed instruction
system.cpu.commit.committedInstType_0::MemRead     38101210      3.12%     37.00% # Class of committed instruction
system.cpu.commit.committedInstType_0::MemWrite    770474802     63.00%    100.00% # Class of committed instruction
system.cpu.commit.committedInstType_0::FloatMemRead            0      0.00%    100.00% # Class of committed instruction
system.cpu.commit.committedInstType_0::FloatMemWrite            0      0.00%    100.00% # Class of committed instruction
system.cpu.commit.committedInstType_0::IprAccess            0      0.00%    100.00% # Class of committed instruction
system.cpu.commit.committedInstType_0::InstPrefetch            0      0.00%    100.00% # Class of committed instruction
system.cpu.commit.committedInstType_0::total   1222988729                       # Class of committed instruction
system.cpu.commit.commitEligibleSamples      18432933                       # number cycles where commit BW limit reached
system.cpu.dcache.demand_hits::.cpu.data    279739242                       # number of demand (read+write) hits
system.cpu.dcache.demand_hits::total        279739242                       # number of demand (read+write) hits
system.cpu.dcache.overall_hits::.cpu.data    279739242                       # number of overall hits
system.cpu.dcache.overall_hits::total       279739242                       # number of overall hits
system.cpu.dcache.demand_misses::.cpu.data    529158689                       # number of demand (read+write) misses
system.cpu.dcache.demand_misses::total      529158689                       # number of demand (read+write) misses
system.cpu.dcache.overall_misses::.cpu.data    529158689                       # number of overall misses
system.cpu.dcache.overall_misses::total     529158689                       # number of overall misses
system.cpu.dcache.demand_miss_latency::.cpu.data 26988116346649                       # number of demand (read+write) miss cycles
system.cpu.dcache.demand_miss_latency::total 26988116346649                       # number of demand (read+write) miss cycles
system.cpu.dcache.overall_miss_latency::.cpu.data 26988116346649                       # number of overall miss cycles
system.cpu.dcache.overall_miss_latency::total 26988116346649                       # number of overall miss cycles
system.cpu.dcache.demand_accesses::.cpu.data    808897931                       # number of demand (read+write) accesses
system.cpu.dcache.demand_accesses::total    808897931                       # number of demand (read+write) accesses
system.cpu.dcache.overall_accesses::.cpu.data    808897931                       # number of overall (read+write) accesses
system.cpu.dcache.overall_accesses::total    808897931                       # number of overall (read+write) accesses
system.cpu.dcache.demand_miss_rate::.cpu.data     0.654172                       # miss rate for demand accesses
system.cpu.dcache.demand_miss_rate::total     0.654172                       # miss rate for demand accesses
system.cpu.dcache.overall_miss_rate::.cpu.data     0.654172                       # miss rate for overall accesses
system.cpu.dcache.overall_miss_rate::total     0.654172                       # miss rate for overall accesses
system.cpu.dcache.demand_avg_miss_latency::.cpu.data 51001.933650                       # average overall miss latency
system.cpu.dcache.demand_avg_miss_latency::total 51001.933650                       # average overall miss latency
system.cpu.dcache.overall_avg_miss_latency::.cpu.data 51001.933650                       # average overall miss latency
system.cpu.dcache.overall_avg_miss_latency::total 51001.933650                       # average overall miss latency
system.cpu.dcache.blocked_cycles::no_mshrs   1494808737                       # number of cycles access was blocked
system.cpu.dcache.blocked_cycles::no_targets          105                       # number of cycles access was blocked
system.cpu.dcache.blocked::no_mshrs          47749755                       # number of cycles access was blocked
system.cpu.dcache.blocked::no_targets               1                       # number of cycles access was blocked
system.cpu.dcache.avg_blocked_cycles::no_mshrs    31.305056                       # average number of cycles each access was blocked
system.cpu.dcache.avg_blocked_cycles::no_targets          105                       # average number of cycles each access was blocked
system.cpu.dcache.ghost_timestamp_misses            0                       # number of times timestamp policy causes a block to be inaccessible
system.cpu.dcache.ghost_commits                     0                       # number of cache lines moved from ghost to main
system.cpu.dcache.same_leapfrogs                    0                       # number of times leapfrogging occurs with a shared MSHR request
system.cpu.dcache.writebacks::.writebacks     96749242                       # number of writebacks
system.cpu.dcache.writebacks::total          96749242                       # number of writebacks
system.cpu.dcache.demand_mshr_hits::.cpu.data    432408935                       # number of demand (read+write) MSHR hits
system.cpu.dcache.demand_mshr_hits::total    432408935                       # number of demand (read+write) MSHR hits
system.cpu.dcache.overall_mshr_hits::.cpu.data    432408935                       # number of overall MSHR hits
system.cpu.dcache.overall_mshr_hits::total    432408935                       # number of overall MSHR hits
system.cpu.dcache.demand_mshr_misses::.cpu.data     96749754                       # number of demand (read+write) MSHR misses
system.cpu.dcache.demand_mshr_misses::total     96749754                       # number of demand (read+write) MSHR misses
system.cpu.dcache.overall_mshr_misses::.cpu.data     96749754                       # number of overall MSHR misses
system.cpu.dcache.overall_mshr_misses::total     96749754                       # number of overall MSHR misses
system.cpu.dcache.demand_mshr_miss_latency::.cpu.data 5483313354754                       # number of demand (read+write) MSHR miss cycles
system.cpu.dcache.demand_mshr_miss_latency::total 5483313354754                       # number of demand (read+write) MSHR miss cycles
system.cpu.dcache.overall_mshr_miss_latency::.cpu.data 5483313354754                       # number of overall MSHR miss cycles
system.cpu.dcache.overall_mshr_miss_latency::total 5483313354754                       # number of overall MSHR miss cycles
system.cpu.dcache.demand_mshr_miss_rate::.cpu.data     0.119607                       # mshr miss rate for demand accesses
system.cpu.dcache.demand_mshr_miss_rate::total     0.119607                       # mshr miss rate for demand accesses
system.cpu.dcache.overall_mshr_miss_rate::.cpu.data     0.119607                       # mshr miss rate for overall accesses
system.cpu.dcache.overall_mshr_miss_rate::total     0.119607                       # mshr miss rate for overall accesses
system.cpu.dcache.demand_avg_mshr_miss_latency::.cpu.data 56675.217539                       # average overall mshr miss latency
system.cpu.dcache.demand_avg_mshr_miss_latency::total 56675.217539                       # average overall mshr miss latency
system.cpu.dcache.overall_avg_mshr_miss_latency::.cpu.data 56675.217539                       # average overall mshr miss latency
system.cpu.dcache.overall_avg_mshr_miss_latency::total 56675.217539                       # average overall mshr miss latency
system.cpu.dcache.replacements               96749242                       # number of replacements
system.cpu.dcache.ReadReq_hits::.cpu.data     36307834                       # number of ReadReq hits
system.cpu.dcache.ReadReq_hits::total        36307834                       # number of ReadReq hits
system.cpu.dcache.ReadReq_misses::.cpu.data      2115460                       # number of ReadReq misses
system.cpu.dcache.ReadReq_misses::total       2115460                       # number of ReadReq misses
system.cpu.dcache.ReadReq_miss_latency::.cpu.data 134491123000                       # number of ReadReq miss cycles
system.cpu.dcache.ReadReq_miss_latency::total 134491123000                       # number of ReadReq miss cycles
system.cpu.dcache.ReadReq_accesses::.cpu.data     38423294                       # number of ReadReq accesses(hits+misses)
system.cpu.dcache.ReadReq_accesses::total     38423294                       # number of ReadReq accesses(hits+misses)
system.cpu.dcache.ReadReq_miss_rate::.cpu.data     0.055057                       # miss rate for ReadReq accesses
system.cpu.dcache.ReadReq_miss_rate::total     0.055057                       # miss rate for ReadReq accesses
system.cpu.dcache.ReadReq_avg_miss_latency::.cpu.data 63575.356187                       # average ReadReq miss latency
system.cpu.dcache.ReadReq_avg_miss_latency::total 63575.356187                       # average ReadReq miss latency
system.cpu.dcache.ReadReq_mshr_hits::.cpu.data      1170482                       # number of ReadReq MSHR hits
system.cpu.dcache.ReadReq_mshr_hits::total      1170482                       # number of ReadReq MSHR hits
system.cpu.dcache.ReadReq_mshr_misses::.cpu.data       944978                       # number of ReadReq MSHR misses
system.cpu.dcache.ReadReq_mshr_misses::total       944978                       # number of ReadReq MSHR misses
system.cpu.dcache.ReadReq_mshr_miss_latency::.cpu.data  55695233000                       # number of ReadReq MSHR miss cycles
system.cpu.dcache.ReadReq_mshr_miss_latency::total  55695233000                       # number of ReadReq MSHR miss cycles
system.cpu.dcache.ReadReq_mshr_miss_rate::.cpu.data     0.024594                       # mshr miss rate for ReadReq accesses
system.cpu.dcache.ReadReq_mshr_miss_rate::total     0.024594                       # mshr miss rate for ReadReq accesses
system.cpu.dcache.ReadReq_avg_mshr_miss_latency::.cpu.data 58938.126602                       # average ReadReq mshr miss latency
system.cpu.dcache.ReadReq_avg_mshr_miss_latency::total 58938.126602                       # average ReadReq mshr miss latency
system.cpu.dcache.WriteReq_hits::.cpu.data    243431379                       # number of WriteReq hits
system.cpu.dcache.WriteReq_hits::total      243431379                       # number of WriteReq hits
system.cpu.dcache.WriteReq_misses::.cpu.data    527042804                       # number of WriteReq misses
system.cpu.dcache.WriteReq_misses::total    527042804                       # number of WriteReq misses
system.cpu.dcache.WriteReq_miss_latency::.cpu.data 26853611616467                       # number of WriteReq miss cycles
system.cpu.dcache.WriteReq_miss_latency::total 26853611616467                       # number of WriteReq miss cycles
system.cpu.dcache.WriteReq_accesses::.cpu.data    770474183                       # number of WriteReq accesses(hits+misses)
system.cpu.dcache.WriteReq_accesses::total    770474183                       # number of WriteReq accesses(hits+misses)
system.cpu.dcache.WriteReq_miss_rate::.cpu.data     0.684050                       # miss rate for WriteReq accesses
system.cpu.dcache.WriteReq_miss_rate::total     0.684050                       # miss rate for WriteReq accesses
system.cpu.dcache.WriteReq_avg_miss_latency::.cpu.data 50951.481384                       # average WriteReq miss latency
system.cpu.dcache.WriteReq_avg_miss_latency::total 50951.481384                       # average WriteReq miss latency
system.cpu.dcache.WriteReq_mshr_hits::.cpu.data    431238453                       # number of WriteReq MSHR hits
system.cpu.dcache.WriteReq_mshr_hits::total    431238453                       # number of WriteReq MSHR hits
system.cpu.dcache.WriteReq_mshr_misses::.cpu.data     95804351                       # number of WriteReq MSHR misses
system.cpu.dcache.WriteReq_mshr_misses::total     95804351                       # number of WriteReq MSHR misses
system.cpu.dcache.WriteReq_mshr_miss_latency::.cpu.data 5427604939572                       # number of WriteReq MSHR miss cycles
system.cpu.dcache.WriteReq_mshr_miss_latency::total 5427604939572                       # number of WriteReq MSHR miss cycles
system.cpu.dcache.WriteReq_mshr_miss_rate::.cpu.data     0.124345                       # mshr miss rate for WriteReq accesses
system.cpu.dcache.WriteReq_mshr_miss_rate::total     0.124345                       # mshr miss rate for WriteReq accesses
system.cpu.dcache.WriteReq_avg_mshr_miss_latency::.cpu.data 56653.010880                       # average WriteReq mshr miss latency
system.cpu.dcache.WriteReq_avg_mshr_miss_latency::total 56653.010880                       # average WriteReq mshr miss latency
system.cpu.dcache.WriteLineReq_hits::.cpu.data           29                       # number of WriteLineReq hits
system.cpu.dcache.WriteLineReq_hits::total           29                       # number of WriteLineReq hits
system.cpu.dcache.WriteLineReq_misses::.cpu.data          425                       # number of WriteLineReq misses
system.cpu.dcache.WriteLineReq_misses::total          425                       # number of WriteLineReq misses
system.cpu.dcache.WriteLineReq_miss_latency::.cpu.data     13607182                       # number of WriteLineReq miss cycles
system.cpu.dcache.WriteLineReq_miss_latency::total     13607182                       # number of WriteLineReq miss cycles
system.cpu.dcache.WriteLineReq_accesses::.cpu.data          454                       # number of WriteLineReq accesses(hits+misses)
system.cpu.dcache.WriteLineReq_accesses::total          454                       # number of WriteLineReq accesses(hits+misses)
system.cpu.dcache.WriteLineReq_miss_rate::.cpu.data     0.936123                       # miss rate for WriteLineReq accesses
system.cpu.dcache.WriteLineReq_miss_rate::total     0.936123                       # miss rate for WriteLineReq accesses
system.cpu.dcache.WriteLineReq_avg_miss_latency::.cpu.data 32016.898824                       # average WriteLineReq miss latency
system.cpu.dcache.WriteLineReq_avg_miss_latency::total 32016.898824                       # average WriteLineReq miss latency
system.cpu.dcache.WriteLineReq_mshr_misses::.cpu.data          425                       # number of WriteLineReq MSHR misses
system.cpu.dcache.WriteLineReq_mshr_misses::total          425                       # number of WriteLineReq MSHR misses
system.cpu.dcache.WriteLineReq_mshr_miss_latency::.cpu.data     13182182                       # number of WriteLineReq MSHR miss cycles
system.cpu.dcache.WriteLineReq_mshr_miss_latency::total     13182182                       # number of WriteLineReq MSHR miss cycles
system.cpu.dcache.WriteLineReq_mshr_miss_rate::.cpu.data     0.936123                       # mshr miss rate for WriteLineReq accesses
system.cpu.dcache.WriteLineReq_mshr_miss_rate::total     0.936123                       # mshr miss rate for WriteLineReq accesses
system.cpu.dcache.WriteLineReq_avg_mshr_miss_latency::.cpu.data 31016.898824                       # average WriteLineReq mshr miss latency
system.cpu.dcache.WriteLineReq_avg_mshr_miss_latency::total 31016.898824                       # average WriteLineReq mshr miss latency
system.cpu.dcache.LoadLockedReq_hits::.cpu.data           21                       # number of LoadLockedReq hits
system.cpu.dcache.LoadLockedReq_hits::total           21                       # number of LoadLockedReq hits
system.cpu.dcache.LoadLockedReq_misses::.cpu.data            3                       # number of LoadLockedReq misses
system.cpu.dcache.LoadLockedReq_misses::total            3                       # number of LoadLockedReq misses
system.cpu.dcache.LoadLockedReq_miss_latency::.cpu.data       183500                       # number of LoadLockedReq miss cycles
system.cpu.dcache.LoadLockedReq_miss_latency::total       183500                       # number of LoadLockedReq miss cycles
system.cpu.dcache.LoadLockedReq_accesses::.cpu.data           24                       # number of LoadLockedReq accesses(hits+misses)
system.cpu.dcache.LoadLockedReq_accesses::total           24                       # number of LoadLockedReq accesses(hits+misses)
system.cpu.dcache.LoadLockedReq_miss_rate::.cpu.data     0.125000                       # miss rate for LoadLockedReq accesses
system.cpu.dcache.LoadLockedReq_miss_rate::total     0.125000                       # miss rate for LoadLockedReq accesses
system.cpu.dcache.LoadLockedReq_avg_miss_latency::.cpu.data 61166.666667                       # average LoadLockedReq miss latency
system.cpu.dcache.LoadLockedReq_avg_miss_latency::total 61166.666667                       # average LoadLockedReq miss latency
system.cpu.dcache.LoadLockedReq_mshr_hits::.cpu.data            1                       # number of LoadLockedReq MSHR hits
system.cpu.dcache.LoadLockedReq_mshr_hits::total            1                       # number of LoadLockedReq MSHR hits
system.cpu.dcache.LoadLockedReq_mshr_misses::.cpu.data            2                       # number of LoadLockedReq MSHR misses
system.cpu.dcache.LoadLockedReq_mshr_misses::total            2                       # number of LoadLockedReq MSHR misses
system.cpu.dcache.LoadLockedReq_mshr_miss_latency::.cpu.data        96500                       # number of LoadLockedReq MSHR miss cycles
system.cpu.dcache.LoadLockedReq_mshr_miss_latency::total        96500                       # number of LoadLockedReq MSHR miss cycles
system.cpu.dcache.LoadLockedReq_mshr_miss_rate::.cpu.data     0.083333                       # mshr miss rate for LoadLockedReq accesses
system.cpu.dcache.LoadLockedReq_mshr_miss_rate::total     0.083333                       # mshr miss rate for LoadLockedReq accesses
system.cpu.dcache.LoadLockedReq_avg_mshr_miss_latency::.cpu.data        48250                       # average LoadLockedReq mshr miss latency
system.cpu.dcache.LoadLockedReq_avg_mshr_miss_latency::total        48250                       # average LoadLockedReq mshr miss latency
system.cpu.dcache.StoreCondReq_hits::.cpu.data            4                       # number of StoreCondReq hits
system.cpu.dcache.StoreCondReq_hits::total            4                       # number of StoreCondReq hits
system.cpu.dcache.StoreCondReq_accesses::.cpu.data            4                       # number of StoreCondReq accesses(hits+misses)
system.cpu.dcache.StoreCondReq_accesses::total            4                       # number of StoreCondReq accesses(hits+misses)
system.cpu.dcache.SwapReq_hits::.cpu.data           98                       # number of SwapReq hits
system.cpu.dcache.SwapReq_hits::total              98                       # number of SwapReq hits
system.cpu.dcache.SwapReq_accesses::.cpu.data           98                       # number of SwapReq accesses(hits+misses)
system.cpu.dcache.SwapReq_accesses::total           98                       # number of SwapReq accesses(hits+misses)
system.cpu.dcache.ghosttags.tagsinuse               0                       # Cycle average of tags in use
system.cpu.dcache.ghosttags.total_refs              0                       # Total number of references to valid blocks.
system.cpu.dcache.ghosttags.sampled_refs            0                       # Sample count of references to valid blocks.
system.cpu.dcache.ghosttags.avg_refs              nan                       # Average number of references to valid blocks.
system.cpu.dcache.ghosttags.warmup_cycle            0                       # Cycle when the warmup percentage was hit.
system.cpu.dcache.ghosttags.tag_accesses            0                       # Number of tag accesses
system.cpu.dcache.ghosttags.data_accesses            0                       # Number of data accesses
system.cpu.dcache.ghosttags.power_state.pwrStateResidencyTicks::UNDEFINED 2100617722000                       # Cumulative time (in ticks) in various power states
system.cpu.dcache.power_state.pwrStateResidencyTicks::UNDEFINED 2100617722000                       # Cumulative time (in ticks) in various power states
system.cpu.dcache.tags.tagsinuse           511.994303                       # Cycle average of tags in use
system.cpu.dcache.tags.total_refs           376489124                       # Total number of references to valid blocks.
system.cpu.dcache.tags.sampled_refs          96749754                       # Sample count of references to valid blocks.
system.cpu.dcache.tags.avg_refs              3.891370                       # Average number of references to valid blocks.
system.cpu.dcache.tags.warmup_cycle            180500                       # Cycle when the warmup percentage was hit.
system.cpu.dcache.tags.occ_blocks::.cpu.data   511.994303                       # Average occupied blocks per requestor
system.cpu.dcache.tags.occ_percent::.cpu.data     0.999989                       # Average percentage of cache occupancy
system.cpu.dcache.tags.occ_percent::total     0.999989                       # Average percentage of cache occupancy
system.cpu.dcache.tags.occ_task_id_blocks::1024          512                       # Occupied blocks per task id
system.cpu.dcache.tags.age_task_id_blocks_1024::0           64                       # Occupied blocks per task id
system.cpu.dcache.tags.age_task_id_blocks_1024::1          434                       # Occupied blocks per task id
system.cpu.dcache.tags.age_task_id_blocks_1024::4           14                       # Occupied blocks per task id
system.cpu.dcache.tags.occ_task_id_percent::1024            1                       # Percentage of cache occupancy per task id
system.cpu.dcache.tags.tag_accesses        6567934210                       # Number of tag accesses
system.cpu.dcache.tags.data_accesses       6567934210                       # Number of data accesses
system.cpu.dcache.tags.power_state.pwrStateResidencyTicks::UNDEFINED 2100617722000                       # Cumulative time (in ticks) in various power states
system.cpu.decode.idleCycles                 42741947                       # Number of cycles decode is idle
system.cpu.decode.blockedCycles            3992927933                       # Number of cycles decode is blocked
system.cpu.decode.runCycles                  64656161                       # Number of cycles decode is running
system.cpu.decode.unblockCycles              99134639                       # Number of cycles decode is unblocking
system.cpu.decode.squashCycles                1613625                       # Number of cycles decode is squashing
system.cpu.decode.branchResolved             10578020                       # Number of times decode resolved a  branch
system.cpu.decode.branchMispred                  1699                       # Number of times decode detected a branch misprediction
system.cpu.decode.decodedInsts             1305527173                       # Number of instructions handled by decode
system.cpu.decode.squashedInsts                  5375                       # Number of squashed instructions handled by decode
system.cpu.dtb.instHits                             0                       # ITB inst hits
system.cpu.dtb.instMisses                           0                       # ITB inst misses
system.cpu.dtb.readHits                             0                       # DTB read hits
system.cpu.dtb.readMisses                           0                       # DTB read misses
system.cpu.dtb.writeHits                            0                       # DTB write hits
system.cpu.dtb.writeMisses                          0                       # DTB write misses
system.cpu.dtb.inserts                              0                       # Number of times an entry is inserted into the TLB
system.cpu.dtb.flushTlb                             0                       # Number of times complete TLB was flushed
system.cpu.dtb.flushTlbMva                          0                       # Number of times TLB was flushed by MVA
system.cpu.dtb.flushTlbMvaAsid                      0                       # Number of times TLB was flushed by MVA & ASID
system.cpu.dtb.flushTlbAsid                         0                       # Number of times TLB was flushed by ASID
system.cpu.dtb.flushedEntries                       0                       # Number of entries that have been flushed from TLB
system.cpu.dtb.alignFaults                          0                       # Number of TLB faults due to alignment restrictions
system.cpu.dtb.prefetchFaults                       0                       # Number of TLB faults due to prefetch
system.cpu.dtb.domainFaults                         0                       # Number of TLB faults due to domain restrictions
system.cpu.dtb.permsFaults                          0                       # Number of TLB faults due to permissions restrictions
system.cpu.dtb.readAccesses                         0                       # DTB read accesses
system.cpu.dtb.writeAccesses                        0                       # DTB write accesses
system.cpu.dtb.instAccesses                         0                       # ITB inst accesses
system.cpu.dtb.hits                                 0                       # Total TLB (inst and data) hits
system.cpu.dtb.misses                               0                       # Total TLB (inst and data) misses
system.cpu.dtb.accesses                             0                       # Total TLB (inst and data) accesses
system.cpu.dtb.stage2_mmu.stage2_tlb.instHits            0                       # ITB inst hits
system.cpu.dtb.stage2_mmu.stage2_tlb.instMisses            0                       # ITB inst misses
system.cpu.dtb.stage2_mmu.stage2_tlb.readHits            0                       # DTB read hits
system.cpu.dtb.stage2_mmu.stage2_tlb.readMisses            0                       # DTB read misses
system.cpu.dtb.stage2_mmu.stage2_tlb.writeHits            0                       # DTB write hits
system.cpu.dtb.stage2_mmu.stage2_tlb.writeMisses            0                       # DTB write misses
system.cpu.dtb.stage2_mmu.stage2_tlb.inserts            0                       # Number of times an entry is inserted into the TLB
system.cpu.dtb.stage2_mmu.stage2_tlb.flushTlb            0                       # Number of times complete TLB was flushed
system.cpu.dtb.stage2_mmu.stage2_tlb.flushTlbMva            0                       # Number of times TLB was flushed by MVA
system.cpu.dtb.stage2_mmu.stage2_tlb.flushTlbMvaAsid            0                       # Number of times TLB was flushed by MVA & ASID
system.cpu.dtb.stage2_mmu.stage2_tlb.flushTlbAsid            0                       # Number of times TLB was flushed by ASID
system.cpu.dtb.stage2_mmu.stage2_tlb.flushedEntries            0                       # Number of entries that have been flushed from TLB
system.cpu.dtb.stage2_mmu.stage2_tlb.alignFaults            0                       # Number of TLB faults due to alignment restrictions
system.cpu.dtb.stage2_mmu.stage2_tlb.prefetchFaults            0                       # Number of TLB faults due to prefetch
system.cpu.dtb.stage2_mmu.stage2_tlb.domainFaults            0                       # Number of TLB faults due to domain restrictions
system.cpu.dtb.stage2_mmu.stage2_tlb.permsFaults            0                       # Number of TLB faults due to permissions restrictions
system.cpu.dtb.stage2_mmu.stage2_tlb.readAccesses            0                       # DTB read accesses
system.cpu.dtb.stage2_mmu.stage2_tlb.writeAccesses            0                       # DTB write accesses
system.cpu.dtb.stage2_mmu.stage2_tlb.instAccesses            0                       # ITB inst accesses
system.cpu.dtb.stage2_mmu.stage2_tlb.hits            0                       # Total TLB (inst and data) hits
system.cpu.dtb.stage2_mmu.stage2_tlb.misses            0                       # Total TLB (inst and data) misses
system.cpu.dtb.stage2_mmu.stage2_tlb.accesses            0                       # Total TLB (inst and data) accesses
system.cpu.dtb.stage2_mmu.stage2_tlb.walker.walks            0                       # Table walker walks requested
system.cpu.dtb.stage2_mmu.stage2_tlb.walker.requestOrigin_Requested::Data            0                       # Table walker requests started/completed, data/inst
system.cpu.dtb.stage2_mmu.stage2_tlb.walker.requestOrigin_Requested::Inst            0                       # Table walker requests started/completed, data/inst
system.cpu.dtb.stage2_mmu.stage2_tlb.walker.requestOrigin_Requested::total            0                       # Table walker requests started/completed, data/inst
system.cpu.dtb.stage2_mmu.stage2_tlb.walker.requestOrigin_Completed::Data            0                       # Table walker requests started/completed, data/inst
system.cpu.dtb.stage2_mmu.stage2_tlb.walker.requestOrigin_Completed::Inst            0                       # Table walker requests started/completed, data/inst
system.cpu.dtb.stage2_mmu.stage2_tlb.walker.requestOrigin_Completed::total            0                       # Table walker requests started/completed, data/inst
system.cpu.dtb.stage2_mmu.stage2_tlb.walker.requestOrigin::total            0                       # Table walker requests started/completed, data/inst
system.cpu.dtb.stage2_mmu.stage2_tlb.walker.power_state.pwrStateResidencyTicks::UNDEFINED 2100617722000                       # Cumulative time (in ticks) in various power states
system.cpu.dtb.walker.walks                         0                       # Table walker walks requested
system.cpu.dtb.walker.requestOrigin_Requested::Data            0                       # Table walker requests started/completed, data/inst
system.cpu.dtb.walker.requestOrigin_Requested::Inst            0                       # Table walker requests started/completed, data/inst
system.cpu.dtb.walker.requestOrigin_Requested::total            0                       # Table walker requests started/completed, data/inst
system.cpu.dtb.walker.requestOrigin_Completed::Data            0                       # Table walker requests started/completed, data/inst
system.cpu.dtb.walker.requestOrigin_Completed::Inst            0                       # Table walker requests started/completed, data/inst
system.cpu.dtb.walker.requestOrigin_Completed::total            0                       # Table walker requests started/completed, data/inst
system.cpu.dtb.walker.requestOrigin::total            0                       # Table walker requests started/completed, data/inst
system.cpu.dtb.walker.power_state.pwrStateResidencyTicks::UNDEFINED 2100617722000                       # Cumulative time (in ticks) in various power states
system.cpu.fetch.icacheStallCycles           43505898                       # Number of cycles fetch is stalled on an Icache miss
system.cpu.fetch.insts                      548346911                       # Number of instructions fetch has processed
system.cpu.fetch.branches                    17851315                       # Number of branches that fetch encountered
system.cpu.fetch.predictedBranches           12515878                       # Number of branches that fetch has predicted taken
system.cpu.fetch.cycles                    4155952682                       # Number of cycles fetch has run and was not squashing or blocked
system.cpu.fetch.squashCycles                 3230584                       # Number of cycles fetch has spent squashing
system.cpu.fetch.miscStallCycles                  266                       # Number of cycles fetch has spent waiting on interrupts,or bad addresses, or out of MSHRs
system.cpu.fetch.pendingTrapStallCycles             4                       # Number of stall cycles due to pending traps
system.cpu.fetch.icacheWaitRetryStallCycles          163                       # Number of stall cycles due to full MSHR
system.cpu.fetch.cacheLines                  41941987                       # Number of cache lines fetched
system.cpu.fetch.icacheSquashes                 10226                       # Number of outstanding Icache misses that were squashed
system.cpu.fetch.nisnDist::samples         4201074305                       # Number of instructions fetched each cycle (Total)
system.cpu.fetch.nisnDist::mean              0.328184                       # Number of instructions fetched each cycle (Total)
system.cpu.fetch.nisnDist::stdev             1.523811                       # Number of instructions fetched each cycle (Total)
system.cpu.fetch.nisnDist::underflows               0      0.00%      0.00% # Number of instructions fetched each cycle (Total)
system.cpu.fetch.nisnDist::0               3993559731     95.06%     95.06% # Number of instructions fetched each cycle (Total)
system.cpu.fetch.nisnDist::1                 10693821      0.25%     95.31% # Number of instructions fetched each cycle (Total)
system.cpu.fetch.nisnDist::2                 10441127      0.25%     95.56% # Number of instructions fetched each cycle (Total)
system.cpu.fetch.nisnDist::3                  9519664      0.23%     95.79% # Number of instructions fetched each cycle (Total)
system.cpu.fetch.nisnDist::4                  9384367      0.22%     96.01% # Number of instructions fetched each cycle (Total)
system.cpu.fetch.nisnDist::5                 11491714      0.27%     96.29% # Number of instructions fetched each cycle (Total)
system.cpu.fetch.nisnDist::6                  6484271      0.15%     96.44% # Number of instructions fetched each cycle (Total)
system.cpu.fetch.nisnDist::7                 11307959      0.27%     96.71% # Number of instructions fetched each cycle (Total)
system.cpu.fetch.nisnDist::8                138191651      3.29%    100.00% # Number of instructions fetched each cycle (Total)
system.cpu.fetch.nisnDist::overflows                0      0.00%    100.00% # Number of instructions fetched each cycle (Total)
system.cpu.fetch.nisnDist::min_value                0                       # Number of instructions fetched each cycle (Total)
system.cpu.fetch.nisnDist::max_value                8                       # Number of instructions fetched each cycle (Total)
system.cpu.fetch.nisnDist::total           4201074305                       # Number of instructions fetched each cycle (Total)
system.cpu.fetch.branchRate                  0.004249                       # Number of branch fetches per cycle
system.cpu.fetch.rate                        0.130520                       # Number of inst fetches per cycle
system.cpu.icache.demand_hits::.cpu.inst     41935508                       # number of demand (read+write) hits
system.cpu.icache.demand_hits::total         41935508                       # number of demand (read+write) hits
system.cpu.icache.overall_hits::.cpu.inst     41935508                       # number of overall hits
system.cpu.icache.overall_hits::total        41935508                       # number of overall hits
system.cpu.icache.demand_misses::.cpu.inst         6477                       # number of demand (read+write) misses
system.cpu.icache.demand_misses::total           6477                       # number of demand (read+write) misses
system.cpu.icache.overall_misses::.cpu.inst         6477                       # number of overall misses
system.cpu.icache.overall_misses::total          6477                       # number of overall misses
system.cpu.icache.demand_miss_latency::.cpu.inst    258572500                       # number of demand (read+write) miss cycles
system.cpu.icache.demand_miss_latency::total    258572500                       # number of demand (read+write) miss cycles
system.cpu.icache.overall_miss_latency::.cpu.inst    258572500                       # number of overall miss cycles
system.cpu.icache.overall_miss_latency::total    258572500                       # number of overall miss cycles
system.cpu.icache.demand_accesses::.cpu.inst     41941985                       # number of demand (read+write) accesses
system.cpu.icache.demand_accesses::total     41941985                       # number of demand (read+write) accesses
system.cpu.icache.overall_accesses::.cpu.inst     41941985                       # number of overall (read+write) accesses
system.cpu.icache.overall_accesses::total     41941985                       # number of overall (read+write) accesses
system.cpu.icache.demand_miss_rate::.cpu.inst     0.000154                       # miss rate for demand accesses
system.cpu.icache.demand_miss_rate::total     0.000154                       # miss rate for demand accesses
system.cpu.icache.overall_miss_rate::.cpu.inst     0.000154                       # miss rate for overall accesses
system.cpu.icache.overall_miss_rate::total     0.000154                       # miss rate for overall accesses
system.cpu.icache.demand_avg_miss_latency::.cpu.inst 39921.645824                       # average overall miss latency
system.cpu.icache.demand_avg_miss_latency::total 39921.645824                       # average overall miss latency
system.cpu.icache.overall_avg_miss_latency::.cpu.inst 39921.645824                       # average overall miss latency
system.cpu.icache.overall_avg_miss_latency::total 39921.645824                       # average overall miss latency
system.cpu.icache.blocked_cycles::no_mshrs         2631                       # number of cycles access was blocked
system.cpu.icache.blocked_cycles::no_targets            0                       # number of cycles access was blocked
system.cpu.icache.blocked::no_mshrs                34                       # number of cycles access was blocked
system.cpu.icache.blocked::no_targets               0                       # number of cycles access was blocked
system.cpu.icache.avg_blocked_cycles::no_mshrs    77.382353                       # average number of cycles each access was blocked
system.cpu.icache.avg_blocked_cycles::no_targets          nan                       # average number of cycles each access was blocked
system.cpu.icache.ghost_timestamp_misses            0                       # number of times timestamp policy causes a block to be inaccessible
system.cpu.icache.ghost_commits                     0                       # number of cache lines moved from ghost to main
system.cpu.icache.same_leapfrogs                    0                       # number of times leapfrogging occurs with a shared MSHR request
system.cpu.icache.writebacks::.writebacks         4775                       # number of writebacks
system.cpu.icache.writebacks::total              4775                       # number of writebacks
system.cpu.icache.demand_mshr_hits::.cpu.inst         1190                       # number of demand (read+write) MSHR hits
system.cpu.icache.demand_mshr_hits::total         1190                       # number of demand (read+write) MSHR hits
system.cpu.icache.overall_mshr_hits::.cpu.inst         1190                       # number of overall MSHR hits
system.cpu.icache.overall_mshr_hits::total         1190                       # number of overall MSHR hits
system.cpu.icache.demand_mshr_misses::.cpu.inst         5287                       # number of demand (read+write) MSHR misses
system.cpu.icache.demand_mshr_misses::total         5287                       # number of demand (read+write) MSHR misses
system.cpu.icache.overall_mshr_misses::.cpu.inst         5287                       # number of overall MSHR misses
system.cpu.icache.overall_mshr_misses::total         5287                       # number of overall MSHR misses
system.cpu.icache.demand_mshr_miss_latency::.cpu.inst    198415500                       # number of demand (read+write) MSHR miss cycles
system.cpu.icache.demand_mshr_miss_latency::total    198415500                       # number of demand (read+write) MSHR miss cycles
system.cpu.icache.overall_mshr_miss_latency::.cpu.inst    198415500                       # number of overall MSHR miss cycles
system.cpu.icache.overall_mshr_miss_latency::total    198415500                       # number of overall MSHR miss cycles
system.cpu.icache.demand_mshr_miss_rate::.cpu.inst     0.000126                       # mshr miss rate for demand accesses
system.cpu.icache.demand_mshr_miss_rate::total     0.000126                       # mshr miss rate for demand accesses
system.cpu.icache.overall_mshr_miss_rate::.cpu.inst     0.000126                       # mshr miss rate for overall accesses
system.cpu.icache.overall_mshr_miss_rate::total     0.000126                       # mshr miss rate for overall accesses
system.cpu.icache.demand_avg_mshr_miss_latency::.cpu.inst 37528.938907                       # average overall mshr miss latency
system.cpu.icache.demand_avg_mshr_miss_latency::total 37528.938907                       # average overall mshr miss latency
system.cpu.icache.overall_avg_mshr_miss_latency::.cpu.inst 37528.938907                       # average overall mshr miss latency
system.cpu.icache.overall_avg_mshr_miss_latency::total 37528.938907                       # average overall mshr miss latency
system.cpu.icache.replacements                   4775                       # number of replacements
system.cpu.icache.ReadReq_hits::.cpu.inst     41935508                       # number of ReadReq hits
system.cpu.icache.ReadReq_hits::total        41935508                       # number of ReadReq hits
system.cpu.icache.ReadReq_misses::.cpu.inst         6477                       # number of ReadReq misses
system.cpu.icache.ReadReq_misses::total          6477                       # number of ReadReq misses
system.cpu.icache.ReadReq_miss_latency::.cpu.inst    258572500                       # number of ReadReq miss cycles
system.cpu.icache.ReadReq_miss_latency::total    258572500                       # number of ReadReq miss cycles
system.cpu.icache.ReadReq_accesses::.cpu.inst     41941985                       # number of ReadReq accesses(hits+misses)
system.cpu.icache.ReadReq_accesses::total     41941985                       # number of ReadReq accesses(hits+misses)
system.cpu.icache.ReadReq_miss_rate::.cpu.inst     0.000154                       # miss rate for ReadReq accesses
system.cpu.icache.ReadReq_miss_rate::total     0.000154                       # miss rate for ReadReq accesses
system.cpu.icache.ReadReq_avg_miss_latency::.cpu.inst 39921.645824                       # average ReadReq miss latency
system.cpu.icache.ReadReq_avg_miss_latency::total 39921.645824                       # average ReadReq miss latency
system.cpu.icache.ReadReq_mshr_hits::.cpu.inst         1190                       # number of ReadReq MSHR hits
system.cpu.icache.ReadReq_mshr_hits::total         1190                       # number of ReadReq MSHR hits
system.cpu.icache.ReadReq_mshr_misses::.cpu.inst         5287                       # number of ReadReq MSHR misses
system.cpu.icache.ReadReq_mshr_misses::total         5287                       # number of ReadReq MSHR misses
system.cpu.icache.ReadReq_mshr_miss_latency::.cpu.inst    198415500                       # number of ReadReq MSHR miss cycles
[...]
system.mem_ctrls.dram.perBankRdBursts::31      2996248                       # Per bank write bursts
system.mem_ctrls.dram.perBankWrBursts::0      2985302                       # Per bank write bursts
system.mem_ctrls.dram.perBankWrBursts::1      2985363                       # Per bank write bursts
system.mem_ctrls.dram.perBankWrBursts::2      2985356                       # Per bank write bursts
system.mem_ctrls.dram.perBankWrBursts::3      2985257                       # Per bank write bursts
system.mem_ctrls.dram.perBankWrBursts::4      2985304                       # Per bank write bursts
system.mem_ctrls.dram.perBankWrBursts::5      2985235                       # Per bank write bursts
system.mem_ctrls.dram.perBankWrBursts::6      2985359                       # Per bank write bursts
system.mem_ctrls.dram.perBankWrBursts::7      2985365                       # Per bank write bursts
system.mem_ctrls.dram.perBankWrBursts::8      2985369                       # Per bank write bursts
system.mem_ctrls.dram.perBankWrBursts::9      2985225                       # Per bank write bursts
system.mem_ctrls.dram.perBankWrBursts::10      2985226                       # Per bank write bursts
system.mem_ctrls.dram.perBankWrBursts::11      2985297                       # Per bank write bursts
system.mem_ctrls.dram.perBankWrBursts::12      2985167                       # Per bank write bursts
system.mem_ctrls.dram.perBankWrBursts::13      2985109                       # Per bank write bursts
system.mem_ctrls.dram.perBankWrBursts::14      2985163                       # Per bank write bursts
system.mem_ctrls.dram.perBankWrBursts::15      2985237                       # Per bank write bursts
system.mem_ctrls.dram.perBankWrBursts::16      2985220                       # Per bank write bursts
system.mem_ctrls.dram.perBankWrBursts::17      2985230                       # Per bank write bursts
system.mem_ctrls.dram.perBankWrBursts::18      2985226                       # Per bank write bursts
system.mem_ctrls.dram.perBankWrBursts::19      2985168                       # Per bank write bursts
system.mem_ctrls.dram.perBankWrBursts::20      2985233                       # Per bank write bursts
system.mem_ctrls.dram.perBankWrBursts::21      2985206                       # Per bank write bursts
system.mem_ctrls.dram.perBankWrBursts::22      2985224                       # Per bank write bursts
system.mem_ctrls.dram.perBankWrBursts::23      2985244                       # Per bank write bursts
system.mem_ctrls.dram.perBankWrBursts::24      2985298                       # Per bank write bursts
system.mem_ctrls.dram.perBankWrBursts::25      2985249                       # Per bank write bursts
system.mem_ctrls.dram.perBankWrBursts::26      2985234                       # Per bank write bursts
system.mem_ctrls.dram.perBankWrBursts::27      2985248                       # Per bank write bursts
system.mem_ctrls.dram.perBankWrBursts::28      2985507                       # Per bank write bursts
system.mem_ctrls.dram.perBankWrBursts::29      2985284                       # Per bank write bursts
system.mem_ctrls.dram.perBankWrBursts::30      2985271                       # Per bank write bursts
system.mem_ctrls.dram.perBankWrBursts::31      2985360                       # Per bank write bursts
system.mem_ctrls.dram.totQLat            4230302940131                       # Total ticks spent queuing
system.mem_ctrls.dram.totBusLat          319474385776                       # Total ticks spent in databus transfers
system.mem_ctrls.dram.totMemAccLat       5907447584787                       # Total ticks spent from burst creation until serviced by the DRAM
system.mem_ctrls.dram.avgQLat                44120.50                       # Average queueing delay per DRAM burst
system.mem_ctrls.dram.avgBusLat               3332.00                       # Average bus latency per DRAM burst
system.mem_ctrls.dram.avgMemAccLat           61612.50                       # Average memory access latency per DRAM burst
system.mem_ctrls.dram.readRowHits            83856871                       # Number of row buffer hits during reads
system.mem_ctrls.dram.writeRowHits           83568600                       # Number of row buffer hits during writes
system.mem_ctrls.dram.readRowHitRate            87.46                       # Row buffer hit rate for reads
system.mem_ctrls.dram.writeRowHitRate           87.48                       # Row buffer hit rate for writes
system.mem_ctrls.dram.bytesPerActivate::samples     23983732                       # Bytes accessed per row activation
system.mem_ctrls.dram.bytesPerActivate::mean   510.770732                       # Bytes accessed per row activation
system.mem_ctrls.dram.bytesPerActivate::gmean   373.473573                       # Bytes accessed per row activation
system.mem_ctrls.dram.bytesPerActivate::stdev   346.281819                       # Bytes accessed per row activation
system.mem_ctrls.dram.bytesPerActivate::0-127      2322517      9.68%      9.68% # Bytes accessed per row activation
system.mem_ctrls.dram.bytesPerActivate::128-255      4145421     17.28%     26.97% # Bytes accessed per row activation
system.mem_ctrls.dram.bytesPerActivate::256-383      3922956     16.36%     43.32% # Bytes accessed per row activation
system.mem_ctrls.dram.bytesPerActivate::384-511      2910506     12.14%     55.46% # Bytes accessed per row activation
system.mem_ctrls.dram.bytesPerActivate::512-639      1952206      8.14%     63.60% # Bytes accessed per row activation
system.mem_ctrls.dram.bytesPerActivate::640-767      1424365      5.94%     69.54% # Bytes accessed per row activation
system.mem_ctrls.dram.bytesPerActivate::768-895      1196231      4.99%     74.53% # Bytes accessed per row activation
system.mem_ctrls.dram.bytesPerActivate::896-1023       945330      3.94%     78.47% # Bytes accessed per row activation
system.mem_ctrls.dram.bytesPerActivate::1024-1151      5164200     21.53%    100.00% # Bytes accessed per row activation
system.mem_ctrls.dram.bytesPerActivate::total     23983732                       # Bytes accessed per row activation
system.mem_ctrls.dram.bytesRead            6136362752                       # Total number of bytes read from DRAM
system.mem_ctrls.dram.bytesWritten         6113826304                       # Total number of bytes written to DRAM
system.mem_ctrls.dram.avgRdBW             2921.218215                       # Average DRAM read bandwidth in MiBytes/s
system.mem_ctrls.dram.avgWrBW             2910.489729                       # Average DRAM write bandwidth in MiBytes/s
system.mem_ctrls.dram.peakBW                 19207.00                       # Theoretical peak bandwidth in MiByte/s
system.mem_ctrls.dram.busUtil                   30.36                       # Data bus utilization in percentage
system.mem_ctrls.dram.busUtilRead               15.21                       # Data bus utilization in percentage for reads
system.mem_ctrls.dram.busUtilWrite              15.15                       # Data bus utilization in percentage for writes
system.mem_ctrls.dram.pageHitRate               87.47                       # Row buffer hit rate, read and write combined
system.mem_ctrls.dram.power_state.pwrStateResidencyTicks::UNDEFINED 2100617722000                       # Cumulative time (in ticks) in various power states
system.mem_ctrls.dram.rank0.actEnergy    18675196132.321552                       # Energy for activate commands per rank (pJ)
system.mem_ctrls.dram.rank0.preEnergy    32968901188.398827                       # Energy for precharge commands per rank (pJ)
system.mem_ctrls.dram.rank0.readEnergy   131495004374.582474                       # Energy for read commands per rank (pJ)
system.mem_ctrls.dram.rank0.writeEnergy  112678738708.663940                       # Energy for write commands per rank (pJ)
system.mem_ctrls.dram.rank0.refreshEnergy 182345151426.485657                       # Energy for refresh commands per rank (pJ)
system.mem_ctrls.dram.rank0.actBackEnergy 868693366169.050415                       # Energy for active background per rank (pJ)
system.mem_ctrls.dram.rank0.preBackEnergy 85934529201.197128                       # Energy for precharge background per rank (pJ)
system.mem_ctrls.dram.rank0.actPowerDownEnergy            0                       # Energy for active power-down per rank (pJ)
system.mem_ctrls.dram.rank0.prePowerDownEnergy            0                       # Energy for precharge power-down per rank (pJ)
system.mem_ctrls.dram.rank0.selfRefreshEnergy            0                       # Energy for self refresh per rank (pJ)
system.mem_ctrls.dram.rank0.totalEnergy  1432790887201.103760                       # Total energy per rank (pJ)
system.mem_ctrls.dram.rank0.averagePower   682.080739                       # Core power per rank (mW)
system.mem_ctrls.dram.rank0.totalIdleTime            0                       # Total Idle time Per DRAM Rank
system.mem_ctrls.dram.rank0.pwrStateTime::IDLE 253290802229                       # Time in different power states
system.mem_ctrls.dram.rank0.pwrStateTime::REF  94429650000                       # Time in different power states
system.mem_ctrls.dram.rank0.pwrStateTime::SREF            0                       # Time in different power states
system.mem_ctrls.dram.rank0.pwrStateTime::PRE_PDN            0                       # Time in different power states
system.mem_ctrls.dram.rank0.pwrStateTime::ACT 1752897269771                       # Time in different power states
system.mem_ctrls.dram.rank0.pwrStateTime::ACT_PDN            0                       # Time in different power states
system.mem_ctrls.dram.rank1.actEnergy    18724461498.289627                       # Energy for activate commands per rank (pJ)
system.mem_ctrls.dram.rank1.preEnergy    33055876260.448711                       # Energy for precharge commands per rank (pJ)
system.mem_ctrls.dram.rank1.readEnergy   131496309996.121063                       # Energy for read commands per rank (pJ)
system.mem_ctrls.dram.rank1.writeEnergy  112678427313.272629                       # Energy for write commands per rank (pJ)
system.mem_ctrls.dram.rank1.refreshEnergy 182345151426.485657                       # Energy for refresh commands per rank (pJ)
system.mem_ctrls.dram.rank1.actBackEnergy 868810835572.509033                       # Energy for active background per rank (pJ)
system.mem_ctrls.dram.rank1.preBackEnergy 85853433572.429520                       # Energy for precharge background per rank (pJ)
system.mem_ctrls.dram.rank1.actPowerDownEnergy            0                       # Energy for active power-down per rank (pJ)
system.mem_ctrls.dram.rank1.prePowerDownEnergy            0                       # Energy for precharge power-down per rank (pJ)
system.mem_ctrls.dram.rank1.selfRefreshEnergy            0                       # Energy for self refresh per rank (pJ)
system.mem_ctrls.dram.rank1.totalEnergy  1432964495639.964355                       # Total energy per rank (pJ)
system.mem_ctrls.dram.rank1.averagePower   682.163385                       # Core power per rank (mW)
system.mem_ctrls.dram.rank1.totalIdleTime            0                       # Total Idle time Per DRAM Rank
system.mem_ctrls.dram.rank1.pwrStateTime::IDLE 253057430405                       # Time in different power states
system.mem_ctrls.dram.rank1.pwrStateTime::REF  94429650000                       # Time in different power states
system.mem_ctrls.dram.rank1.pwrStateTime::SREF            0                       # Time in different power states
system.mem_ctrls.dram.rank1.pwrStateTime::PRE_PDN            0                       # Time in different power states
system.mem_ctrls.dram.rank1.pwrStateTime::ACT 1753130641595                       # Time in different power states
system.mem_ctrls.dram.rank1.pwrStateTime::ACT_PDN            0                       # Time in different power states
system.mem_ctrls.power_state.pwrStateResidencyTicks::UNDEFINED 2100617722000                       # Cumulative time (in ticks) in various power states
system.membus.trans_dist::ReadResp           51784391                       # Transaction distribution
system.membus.trans_dist::WritebackDirty     95528585                       # Transaction distribution
system.membus.trans_dist::CleanEvict           679541                       # Transaction distribution
system.membus.trans_dist::UpgradeReq                1                       # Transaction distribution
system.membus.trans_dist::ReadExReq          44096276                       # Transaction distribution
system.membus.trans_dist::ReadExResp         44096276                       # Transaction distribution
system.membus.trans_dist::ReadCleanReq       51784392                       # Transaction distribution
system.membus.trans_dist::InvalidateReq        459474                       # Transaction distribution
system.membus.pkt_count_system.l2.mem_side_port::system.mem_ctrls.port    288428936                       # Packet count per connected requestor and responder (bytes)
system.membus.pkt_count::total              288428936                       # Packet count per connected requestor and responder (bytes)
system.membus.pkt_size_system.l2.mem_side_port::system.mem_ctrls.port  12250192128                       # Cumulative packet size per connected requestor and responder (bytes)
system.membus.pkt_size::total             12250192128                       # Cumulative packet size per connected requestor and responder (bytes)
system.membus.snoops                                0                       # Total snoops (count)
system.membus.snoopTraffic                          0                       # Total snoop traffic (bytes)
system.membus.snoop_fanout::samples          96340143                       # Request fanout histogram
system.membus.snoop_fanout::mean                    0                       # Request fanout histogram
system.membus.snoop_fanout::stdev                   0                       # Request fanout histogram
system.membus.snoop_fanout::underflows              0      0.00%      0.00% # Request fanout histogram
system.membus.snoop_fanout::0                96340143    100.00%    100.00% # Request fanout histogram
system.membus.snoop_fanout::1                       0      0.00%    100.00% # Request fanout histogram
system.membus.snoop_fanout::overflows               0      0.00%    100.00% # Request fanout histogram
system.membus.snoop_fanout::min_value               0                       # Request fanout histogram
system.membus.snoop_fanout::max_value               0                       # Request fanout histogram
system.membus.snoop_fanout::total            96340143                       # Request fanout histogram
system.membus.power_state.pwrStateResidencyTicks::UNDEFINED 2100617722000                       # Cumulative time (in ticks) in various power states
system.membus.reqLayer0.occupancy        591247048252                       # Layer occupancy (ticks)
system.membus.reqLayer0.utilization              28.1                       # Layer utilization (%)
system.membus.respLayer1.occupancy       493119132537                       # Layer occupancy (ticks)
system.membus.respLayer1.utilization             23.5                       # Layer utilization (%)
system.tol2bus.trans_dist::ReadResp            950266                       # Transaction distribution
system.tol2bus.trans_dist::WritebackDirty    191450360                       # Transaction distribution
system.tol2bus.trans_dist::WritebackClean       832242                       # Transaction distribution
system.tol2bus.trans_dist::CleanEvict          679541                       # Transaction distribution
system.tol2bus.trans_dist::HardPFReq         92398347                       # Transaction distribution
system.tol2bus.trans_dist::UpgradeReq               1                       # Transaction distribution
system.tol2bus.trans_dist::UpgradeResp              1                       # Transaction distribution
system.tol2bus.trans_dist::ReadExReq         95056314                       # Transaction distribution
system.tol2bus.trans_dist::ReadExResp        95056314                       # Transaction distribution
system.tol2bus.trans_dist::ReadCleanReq          5287                       # Transaction distribution
system.tol2bus.trans_dist::ReadSharedReq       944980                       # Transaction distribution
system.tol2bus.trans_dist::InvalidateReq       748461                       # Transaction distribution
system.tol2bus.trans_dist::InvalidateResp       748461                       # Transaction distribution
system.tol2bus.pkt_count_system.cpu.icache.mem_side_port::system.l2.cpu_side_port        15348                       # Packet count per connected requestor and responder (bytes)
system.tol2bus.pkt_count_system.cpu.dcache.mem_side_port::system.l2.cpu_side_port    290248753                       # Packet count per connected requestor and responder (bytes)
system.tol2bus.pkt_count::total             290264101                       # Packet count per connected requestor and responder (bytes)
system.tol2bus.pkt_size_system.cpu.icache.mem_side_port::system.l2.cpu_side_port       643904                       # Cumulative packet size per connected requestor and responder (bytes)
system.tol2bus.pkt_size_system.cpu.dcache.mem_side_port::system.l2.cpu_side_port  12336034240                       # Cumulative packet size per connected requestor and responder (bytes)
system.tol2bus.pkt_size::total            12336678144                       # Cumulative packet size per connected requestor and responder (bytes)
system.tol2bus.snoops                       188606474                       # Total snoops (count)
system.tol2bus.snoopTraffic                6113829504                       # Total snoop traffic (bytes)
system.tol2bus.snoop_fanout::samples        285374524                       # Request fanout histogram
system.tol2bus.snoop_fanout::mean            0.000000                       # Request fanout histogram
system.tol2bus.snoop_fanout::stdev           0.000492                       # Request fanout histogram
system.tol2bus.snoop_fanout::underflows             0      0.00%      0.00% # Request fanout histogram
system.tol2bus.snoop_fanout::0              285374455    100.00%    100.00% # Request fanout histogram
system.tol2bus.snoop_fanout::1                     69      0.00%    100.00% # Request fanout histogram
system.tol2bus.snoop_fanout::2                      0      0.00%    100.00% # Request fanout histogram
system.tol2bus.snoop_fanout::overflows              0      0.00%    100.00% # Request fanout histogram
system.tol2bus.snoop_fanout::min_value              0                       # Request fanout histogram
system.tol2bus.snoop_fanout::max_value              1                       # Request fanout histogram
system.tol2bus.snoop_fanout::total          285374524                       # Request fanout histogram
system.tol2bus.power_state.pwrStateResidencyTicks::UNDEFINED 2100617722000                       # Cumulative time (in ticks) in various power states
system.tol2bus.reqLayer0.occupancy       193541789921                       # Layer occupancy (ticks)
system.tol2bus.reqLayer0.utilization              9.2                       # Layer utilization (%)
system.tol2bus.respLayer0.occupancy           7930500                       # Layer occupancy (ticks)
system.tol2bus.respLayer0.utilization             0.0                       # Layer utilization (%)
system.tol2bus.respLayer1.occupancy      144376171498                       # Layer occupancy (ticks)
system.tol2bus.respLayer1.utilization             6.9                       # Layer utilization (%)
system.voltage_domain.voltage                       1                       # Voltage in Volts

---------- End Simulation Statistics   ----------
