
---------- Begin Simulation Statistics ----------
final_tick                               290269688500                       # Number of ticks from beginning of simulation (restored from checkpoints and never reset)
host_inst_rate                                 119552                       # Simulator instruction rate (inst/s)
host_mem_usage                                8658888                       # Number of bytes of host memory used
host_op_rate                                   143825                       # Simulator op (including micro ops) rate (op/s)
host_seconds                                  4182.28                       # Real time elapsed on the host
host_tick_rate                               69404581                       # Simulator tick rate (ticks/s)
sim_freq                                 1000000000000                       # Frequency of simulated ticks
sim_insts                                   500000001                       # Number of instructions simulated
sim_ops                                     601515568                       # Number of ops (including micro ops) simulated
sim_seconds                                  0.290270                       # Number of seconds simulated
sim_ticks                                290269688500                       # Number of ticks simulated
system.cpu.cc_regfile_reads                 185381634                       # number of cc regfile reads
system.cpu.cc_regfile_writes                181032340                       # number of cc regfile writes
system.cpu.committedInsts                   500000001                       # Number of Instructions Simulated
system.cpu.committedOps                     601515568                       # Number of Ops (including micro ops) Simulated
system.cpu.cpi                               1.161081                       # CPI: Cycles Per Instruction
system.cpu.cpi_total                         1.161081                       # CPI: Total CPI of All Threads
system.cpu.dcache.MSHRs.leapFrogMisses          19452                       # number of false blocks from MSHR
system.cpu.icache.MSHRs.leapFrogMisses              0                       # number of false blocks from MSHR
system.cpu.idleCycles                        41396026                       # Total number of cycles that the CPU has spent unscheduled due to idling
system.cpu.iew.branchMispredicts              7569360                       # Number of branch mispredicts detected at execute
system.cpu.iew.exec_branches                112227905                       # Number of branches executed
system.cpu.iew.exec_nop                       1838750                       # number of nop insts executed
system.cpu.iew.exec_rate                     1.153742                       # Inst execution rate
system.cpu.iew.exec_refs                    246757624                       # number of memory reference insts executed
system.cpu.iew.exec_stores                   97563440                       # Number of stores executed
system.cpu.iew.exec_swp                             0                       # number of swp insts executed
system.cpu.iew.iewBlockCycles                13690670                       # Number of cycles IEW is blocking
system.cpu.iew.iewDispLoadInsts             152014492                       # Number of dispatched load instructions
system.cpu.iew.iewDispNonSpecInsts              37591                       # Number of dispatched non-speculative instructions
system.cpu.iew.iewDispSquashedInsts           2251714                       # Number of squashed instructions skipped by dispatch
system.cpu.iew.iewDispStoreInsts            102938517                       # Number of dispatched store instructions
system.cpu.iew.iewDispatchedInsts           704873008                       # Number of instructions dispatched to IQ
system.cpu.iew.iewExecLoadInsts             149194184                       # Number of load instructions executed
system.cpu.iew.iewExecSquashedInsts           8868591                       # Number of squashed instructions skipped in execute
system.cpu.iew.iewExecutedInsts             669793890                       # Number of executed instructions
system.cpu.iew.iewIQFullEvents                  92079                       # Number of times the IQ has become full, causing a stall
system.cpu.iew.iewIdleCycles                        0                       # Number of cycles IEW is idle
system.cpu.iew.iewLSQFullEvents               3809833                       # Number of times the LSQ has become full, causing a stall
system.cpu.iew.iewSquashCycles                6948363                       # Number of cycles IEW is squashing
system.cpu.iew.iewUnblockCycles               3948977                       # Number of cycles IEW is unblocking
system.cpu.iew.memOrderViolationEvents         199418                       # Number of memory order violations
system.cpu.iew.predictedNotTakenIncorrect      5340366                       # Number of branches that were predicted not taken incorrectly
system.cpu.iew.predictedTakenIncorrect        2228994                       # Number of branches that were predicted taken incorrectly
system.cpu.iew.wb_consumers                 593398096                       # num instructions consuming a value
system.cpu.iew.wb_count                     658544884                       # cumulative count of insts written-back
system.cpu.iew.wb_fanout                     0.565511                       # average fanout of values written-back
system.cpu.iew.wb_producers                 335573317                       # num instructions producing a value
system.cpu.iew.wb_rate                       1.134365                       # insts written-back per cycle
system.cpu.iew.wb_sent                      660684373                       # cumulative count of insts sent to commit
system.cpu.int_regfile_reads                747995257                       # number of integer regfile reads
system.cpu.int_regfile_writes               488980902                       # number of integer regfile writes
system.cpu.ipc                               0.861266                       # IPC: Instructions Per Cycle
system.cpu.ipc_total                         0.861266                       # IPC: Total IPC of All Threads
system.cpu.iq.FU_type_0::No_OpClass             16686      0.00%      0.00% # Type of FU issued
system.cpu.iq.FU_type_0::IntAlu             425613418     62.71%     62.72% # Type of FU issued
system.cpu.iq.FU_type_0::IntMult              1775004      0.26%     62.98% # Type of FU issued
system.cpu.iq.FU_type_0::IntDiv                 85123      0.01%     62.99% # Type of FU issued
system.cpu.iq.FU_type_0::FloatAdd                   5      0.00%     62.99% # Type of FU issued
system.cpu.iq.FU_type_0::FloatCmp                  16      0.00%     62.99% # Type of FU issued
system.cpu.iq.FU_type_0::FloatCvt                  85      0.00%     62.99% # Type of FU issued
system.cpu.iq.FU_type_0::FloatMult                 49      0.00%     62.99% # Type of FU issued
system.cpu.iq.FU_type_0::FloatMultAcc               0      0.00%     62.99% # Type of FU issued
system.cpu.iq.FU_type_0::FloatDiv                   1      0.00%     62.99% # Type of FU issued
system.cpu.iq.FU_type_0::FloatMisc               4096      0.00%     62.99% # Type of FU issued
system.cpu.iq.FU_type_0::FloatSqrt                  0      0.00%     62.99% # Type of FU issued
system.cpu.iq.FU_type_0::SimdAdd                 1017      0.00%     62.99% # Type of FU issued
system.cpu.iq.FU_type_0::SimdAddAcc                 0      0.00%     62.99% # Type of FU issued
system.cpu.iq.FU_type_0::SimdAlu                48964      0.01%     63.00% # Type of FU issued
system.cpu.iq.FU_type_0::SimdCmp                94284      0.01%     63.01% # Type of FU issued
system.cpu.iq.FU_type_0::SimdCvt                    3      0.00%     63.01% # Type of FU issued
system.cpu.iq.FU_type_0::SimdMisc              246261      0.04%     63.05% # Type of FU issued
system.cpu.iq.FU_type_0::SimdMult                   0      0.00%     63.05% # Type of FU issued
system.cpu.iq.FU_type_0::SimdMultAcc                0      0.00%     63.05% # Type of FU issued
system.cpu.iq.FU_type_0::SimdShift               2294      0.00%     63.05% # Type of FU issued
system.cpu.iq.FU_type_0::SimdShiftAcc               0      0.00%     63.05% # Type of FU issued
system.cpu.iq.FU_type_0::SimdDiv                    0      0.00%     63.05% # Type of FU issued
system.cpu.iq.FU_type_0::SimdSqrt                   0      0.00%     63.05% # Type of FU issued
system.cpu.iq.FU_type_0::SimdFloatAdd               0      0.00%     63.05% # Type of FU issued
system.cpu.iq.FU_type_0::SimdFloatAlu               0      0.00%     63.05% # Type of FU issued
system.cpu.iq.FU_type_0::SimdFloatCmp               0      0.00%     63.05% # Type of FU issued
system.cpu.iq.FU_type_0::SimdFloatCvt               0      0.00%     63.05% # Type of FU issued
system.cpu.iq.FU_type_0::SimdFloatDiv               0      0.00%     63.05% # Type of FU issued
system.cpu.iq.FU_type_0::SimdFloatMisc              0      0.00%     63.05% # Type of FU issued
system.cpu.iq.FU_type_0::SimdFloatMult              1      0.00%     63.05% # Type of FU issued
system.cpu.iq.FU_type_0::SimdFloatMultAcc            1      0.00%     63.05% # Type of FU issued
system.cpu.iq.FU_type_0::SimdFloatSqrt              0      0.00%     63.05% # Type of FU issued
system.cpu.iq.FU_type_0::SimdReduceAdd              0      0.00%     63.05% # Type of FU issued
system.cpu.iq.FU_type_0::SimdReduceAlu              0      0.00%     63.05% # Type of FU issued
system.cpu.iq.FU_type_0::SimdReduceCmp              0      0.00%     63.05% # Type of FU issued
system.cpu.iq.FU_type_0::SimdFloatReduceAdd            0      0.00%     63.05% # Type of FU issued
system.cpu.iq.FU_type_0::SimdFloatReduceCmp            0      0.00%     63.05% # Type of FU issued
system.cpu.iq.FU_type_0::SimdAes                    0      0.00%     63.05% # Type of FU issued
system.cpu.iq.FU_type_0::SimdAesMix                 0      0.00%     63.05% # Type of FU issued
system.cpu.iq.FU_type_0::SimdSha1Hash               0      0.00%     63.05% # Type of FU issued
system.cpu.iq.FU_type_0::SimdSha1Hash2              0      0.00%     63.05% # Type of FU issued
system.cpu.iq.FU_type_0::SimdSha256Hash             0      0.00%     63.05% # Type of FU issued
system.cpu.iq.FU_type_0::SimdSha256Hash2            0      0.00%     63.05% # Type of FU issued
system.cpu.iq.FU_type_0::SimdShaSigma2              0      0.00%     63.05% # Type of FU issued
system.cpu.iq.FU_type_0::SimdShaSigma3              0      0.00%     63.05% # Type of FU issued
system.cpu.iq.FU_type_0::SimdPredAlu                0      0.00%     63.05% # Type of FU issued
system.cpu.iq.FU_type_0::MemRead            151936338     22.39%     85.44% # Type of FU issued
system.cpu.iq.FU_type_0::MemWrite            98838840     14.56%    100.00% # Type of FU issued
system.cpu.iq.FU_type_0::FloatMemRead               0      0.00%    100.00% # Type of FU issued
system.cpu.iq.FU_type_0::FloatMemWrite              0      0.00%    100.00% # Type of FU issued
system.cpu.iq.FU_type_0::IprAccess                  0      0.00%    100.00% # Type of FU issued
system.cpu.iq.FU_type_0::InstPrefetch               0      0.00%    100.00% # Type of FU issued
system.cpu.iq.FU_type_0::total              678662486                       # Type of FU issued
system.cpu.iq.fp_alu_accesses                       0                       # Number of floating point alu accesses
system.cpu.iq.fp_inst_queue_reads                   0                       # Number of floating instruction queue reads
system.cpu.iq.fp_inst_queue_wakeup_accesses            0                       # Number of floating instruction queue wakeup accesses
system.cpu.iq.fp_inst_queue_writes                  0                       # Number of floating instruction queue writes
system.cpu.iq.fu_busy_cnt                    14630659                       # FU busy when requested
system.cpu.iq.fu_busy_rate                   0.021558                       # FU busy rate (busy events/executed inst)
system.cpu.iq.fu_full::No_OpClass                   0      0.00%      0.00% # attempts to use FU when none available
system.cpu.iq.fu_full::IntAlu                 2618834     17.90%     17.90% # attempts to use FU when none available
system.cpu.iq.fu_full::IntMult                  35149      0.24%     18.14% # attempts to use FU when none available
system.cpu.iq.fu_full::IntDiv                   11159      0.08%     18.22% # attempts to use FU when none available
system.cpu.iq.fu_full::FloatAdd                     0      0.00%     18.22% # attempts to use FU when none available
system.cpu.iq.fu_full::FloatCmp                     0      0.00%     18.22% # attempts to use FU when none available
system.cpu.iq.fu_full::FloatCvt                     0      0.00%     18.22% # attempts to use FU when none available
system.cpu.iq.fu_full::FloatMult                    0      0.00%     18.22% # attempts to use FU when none available
system.cpu.iq.fu_full::FloatMultAcc                 0      0.00%     18.22% # attempts to use FU when none available
system.cpu.iq.fu_full::FloatDiv                     0      0.00%     18.22% # attempts to use FU when none available
system.cpu.iq.fu_full::FloatMisc                   39      0.00%     18.22% # attempts to use FU when none available
system.cpu.iq.fu_full::FloatSqrt                    0      0.00%     18.22% # attempts to use FU when none available
system.cpu.iq.fu_full::SimdAdd                      0      0.00%     18.22% # attempts to use FU when none available
system.cpu.iq.fu_full::SimdAddAcc                   0      0.00%     18.22% # attempts to use FU when none available
system.cpu.iq.fu_full::SimdAlu                    487      0.00%     18.22% # attempts to use FU when none available
system.cpu.iq.fu_full::SimdCmp                    162      0.00%     18.22% # attempts to use FU when none available
system.cpu.iq.fu_full::SimdCvt                      0      0.00%     18.22% # attempts to use FU when none available
system.cpu.iq.fu_full::SimdMisc                   216      0.00%     18.22% # attempts to use FU when none available
system.cpu.iq.fu_full::SimdMult                     0      0.00%     18.22% # attempts to use FU when none available
system.cpu.iq.fu_full::SimdMultAcc                  0      0.00%     18.22% # attempts to use FU when none available
system.cpu.iq.fu_full::SimdShift                    0      0.00%     18.22% # attempts to use FU when none available
system.cpu.iq.fu_full::SimdShiftAcc                 0      0.00%     18.22% # attempts to use FU when none available
system.cpu.iq.fu_full::SimdDiv                      0      0.00%     18.22% # attempts to use FU when none available
system.cpu.iq.fu_full::SimdSqrt                     0      0.00%     18.22% # attempts to use FU when none available
system.cpu.iq.fu_full::SimdFloatAdd                 0      0.00%     18.22% # attempts to use FU when none available
system.cpu.iq.fu_full::SimdFloatAlu                 0      0.00%     18.22% # attempts to use FU when none available
system.cpu.iq.fu_full::SimdFloatCmp                 0      0.00%     18.22% # attempts to use FU when none available
system.cpu.iq.fu_full::SimdFloatCvt                 0      0.00%     18.22% # attempts to use FU when none available
system.cpu.iq.fu_full::SimdFloatDiv                 0      0.00%     18.22% # attempts to use FU when none available
system.cpu.iq.fu_full::SimdFloatMisc                0      0.00%     18.22% # attempts to use FU when none available
system.cpu.iq.fu_full::SimdFloatMult                0      0.00%     18.22% # attempts to use FU when none available
system.cpu.iq.fu_full::SimdFloatMultAcc             0      0.00%     18.22% # attempts to use FU when none available
system.cpu.iq.fu_full::SimdFloatSqrt                0      0.00%     18.22% # attempts to use FU when none available
system.cpu.iq.fu_full::SimdReduceAdd                0      0.00%     18.22% # attempts to use FU when none available
system.cpu.iq.fu_full::SimdReduceAlu                0      0.00%     18.22% # attempts to use FU when none available
system.cpu.iq.fu_full::SimdReduceCmp                0      0.00%     18.22% # attempts to use FU when none available
system.cpu.iq.fu_full::SimdFloatReduceAdd            0      0.00%     18.22% # attempts to use FU when none available
system.cpu.iq.fu_full::SimdFloatReduceCmp            0      0.00%     18.22% # attempts to use FU when none available
system.cpu.iq.fu_full::SimdAes                      0      0.00%     18.22% # attempts to use FU when none available
system.cpu.iq.fu_full::SimdAesMix                   0      0.00%     18.22% # attempts to use FU when none available
system.cpu.iq.fu_full::SimdSha1Hash                 0      0.00%     18.22% # attempts to use FU when none available
system.cpu.iq.fu_full::SimdSha1Hash2                0      0.00%     18.22% # attempts to use FU when none available
system.cpu.iq.fu_full::SimdSha256Hash               0      0.00%     18.22% # attempts to use FU when none available
system.cpu.iq.fu_full::SimdSha256Hash2              0      0.00%     18.22% # attempts to use FU when none available
system.cpu.iq.fu_full::SimdShaSigma2                0      0.00%     18.22% # attempts to use FU when none available
system.cpu.iq.fu_full::SimdShaSigma3                0      0.00%     18.22% # attempts to use FU when none available
system.cpu.iq.fu_full::SimdPredAlu                  0      0.00%     18.22% # attempts to use FU when none available
system.cpu.iq.fu_full::MemRead                6624220     45.28%     63.50% # attempts to use FU when none available
system.cpu.iq.fu_full::MemWrite               5340393     36.50%    100.00% # attempts to use FU when none available
system.cpu.iq.fu_full::FloatMemRead                 0      0.00%    100.00% # attempts to use FU when none available
system.cpu.iq.fu_full::FloatMemWrite                0      0.00%    100.00% # attempts to use FU when none available
system.cpu.iq.fu_full::IprAccess                    0      0.00%    100.00% # attempts to use FU when none available
system.cpu.iq.fu_full::InstPrefetch                 0      0.00%    100.00% # attempts to use FU when none available
system.cpu.iq.int_alu_accesses              688400284                       # Number of integer alu accesses
system.cpu.iq.int_inst_queue_reads         1902241448                       # Number of integer instruction queue reads
system.cpu.iq.int_inst_queue_wakeup_accesses    654376097                       # Number of integer instruction queue wakeup accesses
system.cpu.iq.int_inst_queue_writes         798445003                       # Number of integer instruction queue writes
system.cpu.iq.iqInstsAdded                  702996666                       # Number of instructions added to the IQ (excludes non-spec)
system.cpu.iq.iqInstsIssued                 678662486                       # Number of instructions issued
system.cpu.iq.iqNonSpecInstsAdded               37592                       # Number of non-speculative instructions added to the IQ
system.cpu.iq.iqSquashedInstsExamined       101518658                       # Number of squashed instructions iterated over during squash; mainly for profiling
system.cpu.iq.iqSquashedInstsIssued            716221                       # Number of squashed instructions issued
system.cpu.iq.iqSquashedNonSpecRemoved          10157                       # Number of squashed non-spec instructions that were removed
system.cpu.iq.iqSquashedOperandsExamined     66330536                       # Number of squashed operands that are examined and possibly removed from graph
system.cpu.iq.issued_per_cycle::samples     539144499                       # Number of insts issued each cycle
system.cpu.iq.issued_per_cycle::mean         1.258777                       # Number of insts issued each cycle
system.cpu.iq.issued_per_cycle::stdev        1.942196                       # Number of insts issued each cycle
system.cpu.iq.issued_per_cycle::underflows            0      0.00%      0.00% # Number of insts issued each cycle
system.cpu.iq.issued_per_cycle::0           318370184     59.05%     59.05% # Number of insts issued each cycle
system.cpu.iq.issued_per_cycle::1            58696510     10.89%     69.94% # Number of insts issued each cycle
system.cpu.iq.issued_per_cycle::2            46896898      8.70%     78.64% # Number of insts issued each cycle
system.cpu.iq.issued_per_cycle::3            34821834      6.46%     85.10% # Number of insts issued each cycle
system.cpu.iq.issued_per_cycle::4            27342019      5.07%     90.17% # Number of insts issued each cycle
system.cpu.iq.issued_per_cycle::5            23720675      4.40%     94.57% # Number of insts issued each cycle
system.cpu.iq.issued_per_cycle::6            16201894      3.01%     97.57% # Number of insts issued each cycle
system.cpu.iq.issued_per_cycle::7             8232017      1.53%     99.10% # Number of insts issued each cycle
system.cpu.iq.issued_per_cycle::8             4862468      0.90%    100.00% # Number of insts issued each cycle
system.cpu.iq.issued_per_cycle::overflows            0      0.00%    100.00% # Number of insts issued each cycle
system.cpu.iq.issued_per_cycle::min_value            0                       # Number of insts issued each cycle
system.cpu.iq.issued_per_cycle::max_value            8                       # Number of insts issued each cycle
system.cpu.iq.issued_per_cycle::total       539144499                       # Number of insts issued each cycle
system.cpu.iq.rate                           1.169018                       # Inst issue rate
system.cpu.iq.vec_alu_accesses                4876175                       # Number of vector alu accesses
system.cpu.iq.vec_inst_queue_reads            9574898                       # Number of vector instruction queue reads
system.cpu.iq.vec_inst_queue_wakeup_accesses      4168787                       # Number of vector instruction queue wakeup accesses
system.cpu.iq.vec_inst_queue_writes           6302239                       # Number of vector instruction queue writes
system.cpu.memDep0.conflictingLoads           4562061                       # Number of conflicting loads.
system.cpu.memDep0.conflictingStores         10707694                       # Number of conflicting stores.
system.cpu.memDep0.insertedLoads            152014492                       # Number of loads inserted to the mem dependence unit.
system.cpu.memDep0.insertedStores           102938517                       # Number of stores inserted to the mem dependence unit.
system.cpu.misc_regfile_reads              1710495619                       # number of misc regfile reads
system.cpu.misc_regfile_writes                  27368                       # number of misc regfile writes
system.cpu.numCycles                        580540525                       # number of cpu cycles simulated
system.cpu.numWorkItemsCompleted                    0                       # number of work items this cpu completed
system.cpu.numWorkItemsStarted                      0                       # number of work items this cpu started
system.cpu.pred_regfile_reads                  259205                       # number of predicate regfile reads
system.cpu.pred_regfile_writes                  88980                       # number of predicate regfile writes
system.cpu.timesIdled                         9082072                       # Number of times that the entire CPU went into an idle state and unscheduled itself
system.cpu.vec_regfile_reads                  3746484                       # number of vector regfile reads
system.cpu.vec_regfile_writes                  493423                       # number of vector regfile writes
system.cpu.workload.numSyscalls                   223                       # Number of system calls
system.l2.MSHRs.leapFrogMisses                      0                       # number of false blocks from MSHR
system.membus.snoop_filter.hit_multi_requests            0                       # Number of requests hitting in the snoop filter with multiple (>1) holders of the requested data.
system.membus.snoop_filter.hit_multi_snoops            0                       # Number of snoops hitting in the snoop filter with multiple (>1) holders of the requested data.
system.membus.snoop_filter.hit_single_requests       358480                       # Number of requests hitting in the snoop filter with a single holder of the requested data.
system.membus.snoop_filter.hit_single_snoops            0                       # Number of snoops hitting in the snoop filter with a single holder of the requested data.
system.membus.snoop_filter.tot_requests        846652                       # Total number of requests made to the snoop filter.
system.membus.snoop_filter.tot_snoops               0                       # Total number of snoops made to the snoop filter.
system.tol2bus.snoop_filter.hit_multi_requests        86816                       # Number of requests hitting in the snoop filter with multiple (>1) holders of the requested data.
system.tol2bus.snoop_filter.hit_multi_snoops          113                       # Number of snoops hitting in the snoop filter with multiple (>1) holders of the requested data.
system.tol2bus.snoop_filter.hit_single_requests     18005895                       # Number of requests hitting in the snoop filter with a single holder of the requested data.
system.tol2bus.snoop_filter.hit_single_snoops        10866                       # Number of snoops hitting in the snoop filter with a single holder of the requested data.
system.tol2bus.snoop_filter.tot_requests     36013852                       # Total number of requests made to the snoop filter.
system.tol2bus.snoop_filter.tot_snoops          10979                       # Total number of snoops made to the snoop filter.
system.clk_domain.clock                          1000                       # Clock period in ticks
system.cpu.branchPred.lookups               134386968                       # Number of BP lookups
system.cpu.branchPred.condPredicted          95681134                       # Number of conditional branches predicted
system.cpu.branchPred.condIncorrect           8776821                       # Number of conditional branches incorrect
system.cpu.branchPred.BTBLookups             61760565                       # Number of BTB lookups
system.cpu.branchPred.BTBHits                53149304                       # Number of BTB hits
system.cpu.branchPred.BTBHitPct             86.057024                       # BTB Hit Percentage
system.cpu.branchPred.RASUsed                12659939                       # Number of times the RAS was used to get a target.
system.cpu.branchPred.RASIncorrect             178682                       # Number of incorrect RAS predictions.
system.cpu.branchPred.indirectLookups         2764228                       # Number of indirect predictor lookups.
system.cpu.branchPred.indirectHits            1665778                       # Number of indirect target hits.
system.cpu.branchPred.indirectMisses          1098450                       # Number of indirect misses.
system.cpu.branchPred.indirectMispredicted       604727                       # Number of mispredicted indirect branches.
system.cpu.commit.commitSquashedInsts       101673687                       # The number of squashed insts skipped by commit
system.cpu.commit.commitNonSpecStalls           27435                       # The number of times commit has been forced to stall to communicate backwards
system.cpu.commit.branchMispredicts           6806999                       # The number of times a branch was mispredicted
system.cpu.commit.numCommittedDist::samples    522144187                       # Number of insts commited each cycle
system.cpu.commit.numCommittedDist::mean     1.155006                       # Number of insts commited each cycle
system.cpu.commit.numCommittedDist::stdev     2.251246                       # Number of insts commited each cycle
system.cpu.commit.numCommittedDist::underflows            0      0.00%      0.00% # Number of insts commited each cycle
system.cpu.commit.numCommittedDist::0       345456509     66.16%     66.16% # Number of insts commited each cycle
system.cpu.commit.numCommittedDist::1        65296496     12.51%     78.67% # Number of insts commited each cycle
system.cpu.commit.numCommittedDist::2        30932214      5.92%     84.59% # Number of insts commited each cycle
system.cpu.commit.numCommittedDist::3        16587367      3.18%     87.77% # Number of insts commited each cycle
system.cpu.commit.numCommittedDist::4        10647287      2.04%     89.81% # Number of insts commited each cycle
system.cpu.commit.numCommittedDist::5         7858934      1.51%     91.31% # Number of insts commited each cycle
system.cpu.commit.numCommittedDist::6         7036130      1.35%     92.66% # Number of insts commited each cycle
system.cpu.commit.numCommittedDist::7         4577944      0.88%     93.54% # Number of insts commited each cycle
system.cpu.commit.numCommittedDist::8        33751306      6.46%    100.00% # Number of insts commited each cycle
system.cpu.commit.numCommittedDist::overflows            0      0.00%    100.00% # Number of insts commited each cycle
system.cpu.commit.numCommittedDist::min_value            0                       # Number of insts commited each cycle
system.cpu.commit.numCommittedDist::max_value            8                       # Number of insts commited each cycle
system.cpu.commit.numCommittedDist::total    522144187                       # Number of insts commited each cycle
system.cpu.commit.instsCommitted            501564112                       # Number of instructions committed
system.cpu.commit.opsCommitted              603079679                       # Number of ops (including micro ops) committed
system.cpu.commit.memRefs                   221218071                       # Number of memory references committed
system.cpu.commit.loads                     129347099                       # Number of loads committed
system.cpu.commit.amos                          13600                       # Number of atomic instructions committed
system.cpu.commit.membars                       13606                       # Number of memory barriers committed
system.cpu.commit.branches                  101789088                       # Number of branches committed
system.cpu.commit.vector                      3658761                       # Number of committed Vector instructions.
system.cpu.commit.floating                          0                       # Number of committed floating point instructions.
system.cpu.commit.integer                   545903657                       # Number of committed integer instructions.
system.cpu.commit.functionCalls              10109213                       # Number of function calls committed.
system.cpu.commit.committedInstType_0::No_OpClass        15096      0.00%      0.00% # Class of committed instruction
system.cpu.commit.committedInstType_0::IntAlu    379763271     62.97%     62.97% # Class of committed instruction
system.cpu.commit.committedInstType_0::IntMult      1645641      0.27%     63.25% # Class of committed instruction
system.cpu.commit.committedInstType_0::IntDiv        69780      0.01%     63.26% # Class of committed instruction
system.cpu.commit.committedInstType_0::FloatAdd            5      0.00%     63.26% # Class of committed instruction
system.cpu.commit.committedInstType_0::FloatCmp           16      0.00%     63.26% # Class of committed instruction
system.cpu.commit.committedInstType_0::FloatCvt           79      0.00%     63.26% # Class of committed instruction
system.cpu.commit.committedInstType_0::FloatMult           48      0.00%     63.26% # Class of committed instruction
system.cpu.commit.committedInstType_0::FloatMultAcc            0      0.00%     63.26% # Class of committed instruction
system.cpu.commit.committedInstType_0::FloatDiv            1      0.00%     63.26% # Class of committed instruction
system.cpu.commit.committedInstType_0::FloatMisc         3645      0.00%     63.26% # Class of committed instruction
system.cpu.commit.committedInstType_0::FloatSqrt            0      0.00%     63.26% # Class of committed instruction
system.cpu.commit.committedInstType_0::SimdAdd          996      0.00%     63.26% # Class of committed instruction
system.cpu.commit.committedInstType_0::SimdAddAcc            0      0.00%     63.26% # Class of committed instruction
system.cpu.commit.committedInstType_0::SimdAlu        47656      0.01%     63.27% # Class of committed instruction
system.cpu.commit.committedInstType_0::SimdCmp        87972      0.01%     63.28% # Class of committed instruction
system.cpu.commit.committedInstType_0::SimdCvt            3      0.00%     63.28% # Class of committed instruction
system.cpu.commit.committedInstType_0::SimdMisc       225370      0.04%     63.32% # Class of committed instruction
system.cpu.commit.committedInstType_0::SimdMult            0      0.00%     63.32% # Class of committed instruction
system.cpu.commit.committedInstType_0::SimdMultAcc            0      0.00%     63.32% # Class of committed instruction
system.cpu.commit.committedInstType_0::SimdShift         2029      0.00%     63.32% # Class of committed instruction
system.cpu.commit.committedInstType_0::SimdShiftAcc            0      0.00%     63.32% # Class of committed instruction
system.cpu.commit.committedInstType_0::SimdDiv            0      0.00%     63.32% # Class of committed instruction
system.cpu.commit.committedInstType_0::SimdSqrt            0      0.00%     63.32% # Class of committed instruction
system.cpu.commit.committedInstType_0::SimdFloatAdd            0      0.00%     63.32% # Class of committed instruction
system.cpu.commit.committedInstType_0::SimdFloatAlu            0      0.00%     63.32% # Class of committed instruction
system.cpu.commit.committedInstType_0::SimdFloatCmp            0      0.00%     63.32% # Class of committed instruction
system.cpu.commit.committedInstType_0::SimdFloatCvt            0      0.00%     63.32% # Class of committed instruction
system.cpu.commit.committedInstType_0::SimdFloatDiv            0      0.00%     63.32% # Class of committed instruction
system.cpu.commit.committedInstType_0::SimdFloatMisc            0      0.00%     63.32% # Class of committed instruction
system.cpu.commit.committedInstType_0::SimdFloatMult            0      0.00%     63.32% # Class of committed instruction
system.cpu.commit.committedInstType_0::SimdFloatMultAcc            0      0.00%     63.32% # Class of committed instruction
system.cpu.commit.committedInstType_0::SimdFloatSqrt            0      0.00%     63.32% # Class of committed instruction
system.cpu.commit.committedInstType_0::SimdReduceAdd            0      0.00%     63.32% # Class of committed instruction
system.cpu.commit.committedInstType_0::SimdReduceAlu            0      0.00%     63.32% # Class of committed instruction
system.cpu.commit.committedInstType_0::SimdReduceCmp            0      0.00%     63.32% # Class of committed instruction
system.cpu.commit.committedInstType_0::SimdFloatReduceAdd            0      0.00%     63.32% # Class of committed instruction
system.cpu.commit.committedInstType_0::SimdFloatReduceCmp            0      0.00%     63.32% # Class of committed instruction
system.cpu.commit.committedInstType_0::SimdAes            0      0.00%     63.32% # Class of committed instruction
system.cpu.commit.committedInstType_0::SimdAesMix            0      0.00%     63.32% # Class of committed instruction
system.cpu.commit.committedInstType_0::SimdSha1Hash            0      0.00%     63.32% # Class of committed instruction
system.cpu.commit.committedInstType_0::SimdSha1Hash2            0      0.00%     63.32% # Class of committed instruction
system.cpu.commit.committedInstType_0::SimdSha256Hash            0      0.00%     63.32% # Class of committed instruction
system.cpu.commit.committedInstType_0::SimdSha256Hash2            0      0.00%     63.32% # Class of committed instruction
system.cpu.commit.committedInstType_0::SimdShaSigma2            0      0.00%     63.32% # Class of committed instruction
system.cpu.commit.committedInstType_0::SimdShaSigma3            0      0.00%     63.32% # Class of committed instruction
system.cpu.commit.committedInstType_0::SimdPredAlu            0      0.00%     63.32% # Class of committed instruction
system.cpu.commit.committedInstType_0::MemRead    129347099     21.45%     84.77% # Class of committed instruction
system.cpu.commit.committedInstType_0::MemWrite     91870972     15.23%    100.00% # Class of committed instruction
system.cpu.commit.committedInstType_0::FloatMemRead            0      0.00%    100.00% # Class of committed instruction
system.cpu.commit.committedInstType_0::FloatMemWrite            0      0.00%    100.00% # Class of committed instruction
system.cpu.commit.committedInstType_0::IprAccess            0      0.00%    100.00% # Class of committed instruction
system.cpu.commit.committedInstType_0::InstPrefetch            0      0.00%    100.00% # Class of committed instruction
system.cpu.commit.committedInstType_0::total    603079679                       # Class of committed instruction
system.cpu.commit.commitEligibleSamples      33751306                       # number cycles where commit BW limit reached
system.cpu.dcache.demand_hits::.cpu.data    224110676                       # number of demand (read+write) hits
system.cpu.dcache.demand_hits::total        224110676                       # number of demand (read+write) hits
system.cpu.dcache.overall_hits::.cpu.data    224110676                       # number of overall hits
system.cpu.dcache.overall_hits::total       224110676                       # number of overall hits
system.cpu.dcache.demand_misses::.cpu.data      8029401                       # number of demand (read+write) misses
system.cpu.dcache.demand_misses::total        8029401                       # number of demand (read+write) misses
system.cpu.dcache.overall_misses::.cpu.data      8029401                       # number of overall misses
system.cpu.dcache.overall_misses::total       8029401                       # number of overall misses
system.cpu.dcache.demand_miss_latency::.cpu.data 274768104676                       # number of demand (read+write) miss cycles
system.cpu.dcache.demand_miss_latency::total 274768104676                       # number of demand (read+write) miss cycles
system.cpu.dcache.overall_miss_latency::.cpu.data 274768104676                       # number of overall miss cycles
system.cpu.dcache.overall_miss_latency::total 274768104676                       # number of overall miss cycles
system.cpu.dcache.demand_accesses::.cpu.data    232140077                       # number of demand (read+write) accesses
system.cpu.dcache.demand_accesses::total    232140077                       # number of demand (read+write) accesses
system.cpu.dcache.overall_accesses::.cpu.data    232140077                       # number of overall (read+write) accesses
system.cpu.dcache.overall_accesses::total    232140077                       # number of overall (read+write) accesses
system.cpu.dcache.demand_miss_rate::.cpu.data     0.034589                       # miss rate for demand accesses
system.cpu.dcache.demand_miss_rate::total     0.034589                       # miss rate for demand accesses
system.cpu.dcache.overall_miss_rate::.cpu.data     0.034589                       # miss rate for overall accesses
system.cpu.dcache.overall_miss_rate::total     0.034589                       # miss rate for overall accesses
system.cpu.dcache.demand_avg_miss_latency::.cpu.data 34220.249390                       # average overall miss latency
system.cpu.dcache.demand_avg_miss_latency::total 34220.249390                       # average overall miss latency
system.cpu.dcache.overall_avg_miss_latency::.cpu.data 34220.249390                       # average overall miss latency
system.cpu.dcache.overall_avg_miss_latency::total 34220.249390                       # average overall miss latency
system.cpu.dcache.blocked_cycles::no_mshrs      2390895                       # number of cycles access was blocked
system.cpu.dcache.blocked_cycles::no_targets        28477                       # number of cycles access was blocked
system.cpu.dcache.blocked::no_mshrs            165740                       # number of cycles access was blocked
system.cpu.dcache.blocked::no_targets             340                       # number of cycles access was blocked
system.cpu.dcache.avg_blocked_cycles::no_mshrs    14.425576                       # average number of cycles each access was blocked
system.cpu.dcache.avg_blocked_cycles::no_targets    83.755882                       # average number of cycles each access was blocked
system.cpu.dcache.ghost_timestamp_misses            0                       # number of times timestamp policy causes a block to be inaccessible
system.cpu.dcache.ghost_commits                     0                       # number of cache lines moved from ghost to main
system.cpu.dcache.same_leapfrogs                    0                       # number of times leapfrogging occurs with a shared MSHR request
system.cpu.dcache.writebacks::.writebacks      2869255                       # number of writebacks
system.cpu.dcache.writebacks::total           2869255                       # number of writebacks
system.cpu.dcache.demand_mshr_hits::.cpu.data      5159160                       # number of demand (read+write) MSHR hits
system.cpu.dcache.demand_mshr_hits::total      5159160                       # number of demand (read+write) MSHR hits
system.cpu.dcache.overall_mshr_hits::.cpu.data      5159160                       # number of overall MSHR hits
system.cpu.dcache.overall_mshr_hits::total      5159160                       # number of overall MSHR hits
system.cpu.dcache.demand_mshr_misses::.cpu.data      2870241                       # number of demand (read+write) MSHR misses
system.cpu.dcache.demand_mshr_misses::total      2870241                       # number of demand (read+write) MSHR misses
system.cpu.dcache.overall_mshr_misses::.cpu.data      2870241                       # number of overall MSHR misses
system.cpu.dcache.overall_mshr_misses::total      2870241                       # number of overall MSHR misses
system.cpu.dcache.demand_mshr_miss_latency::.cpu.data  61596723705                       # number of demand (read+write) MSHR miss cycles
system.cpu.dcache.demand_mshr_miss_latency::total  61596723705                       # number of demand (read+write) MSHR miss cycles
system.cpu.dcache.overall_mshr_miss_latency::.cpu.data  61596723705                       # number of overall MSHR miss cycles
system.cpu.dcache.overall_mshr_miss_latency::total  61596723705                       # number of overall MSHR miss cycles
system.cpu.dcache.demand_mshr_miss_rate::.cpu.data     0.012364                       # mshr miss rate for demand accesses
system.cpu.dcache.demand_mshr_miss_rate::total     0.012364                       # mshr miss rate for demand accesses
system.cpu.dcache.overall_mshr_miss_rate::.cpu.data     0.012364                       # mshr miss rate for overall accesses
system.cpu.dcache.overall_mshr_miss_rate::total     0.012364                       # mshr miss rate for overall accesses
system.cpu.dcache.demand_avg_mshr_miss_latency::.cpu.data 21460.470987                       # average overall mshr miss latency
system.cpu.dcache.demand_avg_mshr_miss_latency::total 21460.470987                       # average overall mshr miss latency
system.cpu.dcache.overall_avg_mshr_miss_latency::.cpu.data 21460.470987                       # average overall mshr miss latency
system.cpu.dcache.overall_avg_mshr_miss_latency::total 21460.470987                       # average overall mshr miss latency
system.cpu.dcache.replacements                2869255                       # number of replacements
system.cpu.dcache.ReadReq_hits::.cpu.data    136746736                       # number of ReadReq hits
system.cpu.dcache.ReadReq_hits::total       136746736                       # number of ReadReq hits
system.cpu.dcache.ReadReq_misses::.cpu.data      3521611                       # number of ReadReq misses
system.cpu.dcache.ReadReq_misses::total       3521611                       # number of ReadReq misses
system.cpu.dcache.ReadReq_miss_latency::.cpu.data  63731041500                       # number of ReadReq miss cycles
system.cpu.dcache.ReadReq_miss_latency::total  63731041500                       # number of ReadReq miss cycles
system.cpu.dcache.ReadReq_accesses::.cpu.data    140268347                       # number of ReadReq accesses(hits+misses)
system.cpu.dcache.ReadReq_accesses::total    140268347                       # number of ReadReq accesses(hits+misses)
system.cpu.dcache.ReadReq_miss_rate::.cpu.data     0.025106                       # miss rate for ReadReq accesses
system.cpu.dcache.ReadReq_miss_rate::total     0.025106                       # miss rate for ReadReq accesses
system.cpu.dcache.ReadReq_avg_miss_latency::.cpu.data 18097.126997                       # average ReadReq miss latency
system.cpu.dcache.ReadReq_avg_miss_latency::total 18097.126997                       # average ReadReq miss latency
system.cpu.dcache.ReadReq_mshr_hits::.cpu.data      1457349                       # number of ReadReq MSHR hits
system.cpu.dcache.ReadReq_mshr_hits::total      1457349                       # number of ReadReq MSHR hits
system.cpu.dcache.ReadReq_mshr_misses::.cpu.data      2064262                       # number of ReadReq MSHR misses
system.cpu.dcache.ReadReq_mshr_misses::total      2064262                       # number of ReadReq MSHR misses
system.cpu.dcache.ReadReq_mshr_miss_latency::.cpu.data  29694604000                       # number of ReadReq MSHR miss cycles
system.cpu.dcache.ReadReq_mshr_miss_latency::total  29694604000                       # number of ReadReq MSHR miss cycles
system.cpu.dcache.ReadReq_mshr_miss_rate::.cpu.data     0.014717                       # mshr miss rate for ReadReq accesses
system.cpu.dcache.ReadReq_mshr_miss_rate::total     0.014717                       # mshr miss rate for ReadReq accesses
system.cpu.dcache.ReadReq_avg_mshr_miss_latency::.cpu.data 14385.094528                       # average ReadReq mshr miss latency
system.cpu.dcache.ReadReq_avg_mshr_miss_latency::total 14385.094528                       # average ReadReq mshr miss latency
system.cpu.dcache.WriteReq_hits::.cpu.data     87363266                       # number of WriteReq hits
system.cpu.dcache.WriteReq_hits::total       87363266                       # number of WriteReq hits
system.cpu.dcache.WriteReq_misses::.cpu.data      4484641                       # number of WriteReq misses
system.cpu.dcache.WriteReq_misses::total      4484641                       # number of WriteReq misses
system.cpu.dcache.WriteReq_miss_latency::.cpu.data 210443085636                       # number of WriteReq miss cycles
system.cpu.dcache.WriteReq_miss_latency::total 210443085636                       # number of WriteReq miss cycles
system.cpu.dcache.WriteReq_accesses::.cpu.data     91847907                       # number of WriteReq accesses(hits+misses)
system.cpu.dcache.WriteReq_accesses::total     91847907                       # number of WriteReq accesses(hits+misses)
system.cpu.dcache.WriteReq_miss_rate::.cpu.data     0.048827                       # miss rate for WriteReq accesses
system.cpu.dcache.WriteReq_miss_rate::total     0.048827                       # miss rate for WriteReq accesses
system.cpu.dcache.WriteReq_avg_miss_latency::.cpu.data 46925.291375                       # average WriteReq miss latency
system.cpu.dcache.WriteReq_avg_miss_latency::total 46925.291375                       # average WriteReq miss latency
system.cpu.dcache.WriteReq_mshr_hits::.cpu.data      3701811                       # number of WriteReq MSHR hits
system.cpu.dcache.WriteReq_mshr_hits::total      3701811                       # number of WriteReq MSHR hits
system.cpu.dcache.WriteReq_mshr_misses::.cpu.data       782830                       # number of WriteReq MSHR misses
system.cpu.dcache.WriteReq_mshr_misses::total       782830                       # number of WriteReq MSHR misses
system.cpu.dcache.WriteReq_mshr_miss_latency::.cpu.data  31331291165                       # number of WriteReq MSHR miss cycles
system.cpu.dcache.WriteReq_mshr_miss_latency::total  31331291165                       # number of WriteReq MSHR miss cycles
system.cpu.dcache.WriteReq_mshr_miss_rate::.cpu.data     0.008523                       # mshr miss rate for WriteReq accesses
system.cpu.dcache.WriteReq_mshr_miss_rate::total     0.008523                       # mshr miss rate for WriteReq accesses
system.cpu.dcache.WriteReq_avg_mshr_miss_latency::.cpu.data 40023.109954                       # average WriteReq mshr miss latency
system.cpu.dcache.WriteReq_avg_mshr_miss_latency::total 40023.109954                       # average WriteReq mshr miss latency
system.cpu.dcache.WriteLineReq_hits::.cpu.data          674                       # number of WriteLineReq hits
system.cpu.dcache.WriteLineReq_hits::total          674                       # number of WriteLineReq hits
system.cpu.dcache.WriteLineReq_misses::.cpu.data        23149                       # number of WriteLineReq misses
system.cpu.dcache.WriteLineReq_misses::total        23149                       # number of WriteLineReq misses
system.cpu.dcache.WriteLineReq_miss_latency::.cpu.data    593977540                       # number of WriteLineReq miss cycles
system.cpu.dcache.WriteLineReq_miss_latency::total    593977540                       # number of WriteLineReq miss cycles
system.cpu.dcache.WriteLineReq_accesses::.cpu.data        23823                       # number of WriteLineReq accesses(hits+misses)
system.cpu.dcache.WriteLineReq_accesses::total        23823                       # number of WriteLineReq accesses(hits+misses)
system.cpu.dcache.WriteLineReq_miss_rate::.cpu.data     0.971708                       # miss rate for WriteLineReq accesses
system.cpu.dcache.WriteLineReq_miss_rate::total     0.971708                       # miss rate for WriteLineReq accesses
system.cpu.dcache.WriteLineReq_avg_miss_latency::.cpu.data 25658.885481                       # average WriteLineReq miss latency
system.cpu.dcache.WriteLineReq_avg_miss_latency::total 25658.885481                       # average WriteLineReq miss latency
system.cpu.dcache.WriteLineReq_mshr_misses::.cpu.data        23149                       # number of WriteLineReq MSHR misses
system.cpu.dcache.WriteLineReq_mshr_misses::total        23149                       # number of WriteLineReq MSHR misses
system.cpu.dcache.WriteLineReq_mshr_miss_latency::.cpu.data    570828540                       # number of WriteLineReq MSHR miss cycles
system.cpu.dcache.WriteLineReq_mshr_miss_latency::total    570828540                       # number of WriteLineReq MSHR miss cycles
system.cpu.dcache.WriteLineReq_mshr_miss_rate::.cpu.data     0.971708                       # mshr miss rate for WriteLineReq accesses
system.cpu.dcache.WriteLineReq_mshr_miss_rate::total     0.971708                       # mshr miss rate for WriteLineReq accesses
system.cpu.dcache.WriteLineReq_avg_mshr_miss_latency::.cpu.data 24658.885481                       # average WriteLineReq mshr miss latency
system.cpu.dcache.WriteLineReq_avg_mshr_miss_latency::total 24658.885481                       # average WriteLineReq mshr miss latency
system.cpu.dcache.LoadLockedReq_hits::.cpu.data           57                       # number of LoadLockedReq hits
system.cpu.dcache.LoadLockedReq_hits::total           57                       # number of LoadLockedReq hits
system.cpu.dcache.LoadLockedReq_misses::.cpu.data            1                       # number of LoadLockedReq misses
system.cpu.dcache.LoadLockedReq_misses::total            1                       # number of LoadLockedReq misses
system.cpu.dcache.LoadLockedReq_miss_latency::.cpu.data        86000                       # number of LoadLockedReq miss cycles
system.cpu.dcache.LoadLockedReq_miss_latency::total        86000                       # number of LoadLockedReq miss cycles
system.cpu.dcache.LoadLockedReq_accesses::.cpu.data           58                       # number of LoadLockedReq accesses(hits+misses)
system.cpu.dcache.LoadLockedReq_accesses::total           58                       # number of LoadLockedReq accesses(hits+misses)
system.cpu.dcache.LoadLockedReq_miss_rate::.cpu.data     0.017241                       # miss rate for LoadLockedReq accesses
system.cpu.dcache.LoadLockedReq_miss_rate::total     0.017241                       # miss rate for LoadLockedReq accesses
system.cpu.dcache.LoadLockedReq_avg_miss_latency::.cpu.data        86000                       # average LoadLockedReq miss latency
system.cpu.dcache.LoadLockedReq_avg_miss_latency::total        86000                       # average LoadLockedReq miss latency
system.cpu.dcache.LoadLockedReq_mshr_misses::.cpu.data            1                       # number of LoadLockedReq MSHR misses
system.cpu.dcache.LoadLockedReq_mshr_misses::total            1                       # number of LoadLockedReq MSHR misses
system.cpu.dcache.LoadLockedReq_mshr_miss_latency::.cpu.data        85000                       # number of LoadLockedReq MSHR miss cycles
system.cpu.dcache.LoadLockedReq_mshr_miss_latency::total        85000                       # number of LoadLockedReq MSHR miss cycles
system.cpu.dcache.LoadLockedReq_mshr_miss_rate::.cpu.data     0.017241                       # mshr miss rate for LoadLockedReq accesses
system.cpu.dcache.LoadLockedReq_mshr_miss_rate::total     0.017241                       # mshr miss rate for LoadLockedReq accesses
system.cpu.dcache.LoadLockedReq_avg_mshr_miss_latency::.cpu.data        85000                       # average LoadLockedReq mshr miss latency
system.cpu.dcache.LoadLockedReq_avg_mshr_miss_latency::total        85000                       # average LoadLockedReq mshr miss latency
system.cpu.dcache.StoreCondReq_hits::.cpu.data            4                       # number of StoreCondReq hits
system.cpu.dcache.StoreCondReq_hits::total            4                       # number of StoreCondReq hits
system.cpu.dcache.StoreCondReq_accesses::.cpu.data            4                       # number of StoreCondReq accesses(hits+misses)
system.cpu.dcache.StoreCondReq_accesses::total            4                       # number of StoreCondReq accesses(hits+misses)
system.cpu.dcache.SwapReq_hits::.cpu.data        13302                       # number of SwapReq hits
system.cpu.dcache.SwapReq_hits::total           13302                       # number of SwapReq hits
system.cpu.dcache.SwapReq_misses::.cpu.data          298                       # number of SwapReq misses
system.cpu.dcache.SwapReq_misses::total           298                       # number of SwapReq misses
system.cpu.dcache.SwapReq_miss_latency::.cpu.data      3893500                       # number of SwapReq miss cycles
system.cpu.dcache.SwapReq_miss_latency::total      3893500                       # number of SwapReq miss cycles
system.cpu.dcache.SwapReq_accesses::.cpu.data        13600                       # number of SwapReq accesses(hits+misses)
system.cpu.dcache.SwapReq_accesses::total        13600                       # number of SwapReq accesses(hits+misses)
system.cpu.dcache.SwapReq_miss_rate::.cpu.data     0.021912                       # miss rate for SwapReq accesses
system.cpu.dcache.SwapReq_miss_rate::total     0.021912                       # miss rate for SwapReq accesses
system.cpu.dcache.SwapReq_avg_miss_latency::.cpu.data 13065.436242                       # average SwapReq miss latency
system.cpu.dcache.SwapReq_avg_miss_latency::total 13065.436242                       # average SwapReq miss latency
system.cpu.dcache.SwapReq_mshr_misses::.cpu.data          298                       # number of SwapReq MSHR misses
system.cpu.dcache.SwapReq_mshr_misses::total          298                       # number of SwapReq MSHR misses
system.cpu.dcache.SwapReq_mshr_miss_latency::.cpu.data      3595500                       # number of SwapReq MSHR miss cycles
system.cpu.dcache.SwapReq_mshr_miss_latency::total      3595500                       # number of SwapReq MSHR miss cycles
system.cpu.dcache.SwapReq_mshr_miss_rate::.cpu.data     0.021912                       # mshr miss rate for SwapReq accesses
system.cpu.dcache.SwapReq_mshr_miss_rate::total     0.021912                       # mshr miss rate for SwapReq accesses
system.cpu.dcache.SwapReq_avg_mshr_miss_latency::.cpu.data 12065.436242                       # average SwapReq mshr miss latency
system.cpu.dcache.SwapReq_avg_mshr_miss_latency::total 12065.436242                       # average SwapReq mshr miss latency
system.cpu.dcache.ghosttags.tagsinuse               0                       # Cycle average of tags in use
system.cpu.dcache.ghosttags.total_refs              0                       # Total number of references to valid blocks.
system.cpu.dcache.ghosttags.sampled_refs            0                       # Sample count of references to valid blocks.
system.cpu.dcache.ghosttags.avg_refs              nan                       # Average number of references to valid blocks.
system.cpu.dcache.ghosttags.warmup_cycle            0                       # Cycle when the warmup percentage was hit.
system.cpu.dcache.ghosttags.tag_accesses            0                       # Number of tag accesses
system.cpu.dcache.ghosttags.data_accesses            0                       # Number of data accesses
system.cpu.dcache.ghosttags.power_state.pwrStateResidencyTicks::UNDEFINED 290269688500                       # Cumulative time (in ticks) in various power states
system.cpu.dcache.power_state.pwrStateResidencyTicks::UNDEFINED 290269688500                       # Cumulative time (in ticks) in various power states
system.cpu.dcache.tags.tagsinuse           511.963083                       # Cycle average of tags in use
system.cpu.dcache.tags.total_refs           226995916                       # Total number of references to valid blocks.
system.cpu.dcache.tags.sampled_refs           2869767                       # Sample count of references to valid blocks.
system.cpu.dcache.tags.avg_refs             79.099075                       # Average number of references to valid blocks.
system.cpu.dcache.tags.warmup_cycle            180500                       # Cycle when the warmup percentage was hit.
system.cpu.dcache.tags.occ_blocks::.cpu.data   511.963083                       # Average occupied blocks per requestor
system.cpu.dcache.tags.occ_percent::.cpu.data     0.999928                       # Average percentage of cache occupancy
system.cpu.dcache.tags.occ_percent::total     0.999928                       # Average percentage of cache occupancy
system.cpu.dcache.tags.occ_task_id_blocks::1024          512                       # Occupied blocks per task id
system.cpu.dcache.tags.age_task_id_blocks_1024::0           66                       # Occupied blocks per task id
system.cpu.dcache.tags.age_task_id_blocks_1024::1          375                       # Occupied blocks per task id
system.cpu.dcache.tags.age_task_id_blocks_1024::2           49                       # Occupied blocks per task id
system.cpu.dcache.tags.age_task_id_blocks_1024::3           19                       # Occupied blocks per task id
system.cpu.dcache.tags.age_task_id_blocks_1024::4            3                       # Occupied blocks per task id
system.cpu.dcache.tags.occ_task_id_percent::1024            1                       # Percentage of cache occupancy per task id
system.cpu.dcache.tags.tag_accesses        1860099679                       # Number of tag accesses
system.cpu.dcache.tags.data_accesses       1860099679                       # Number of data accesses
system.cpu.dcache.tags.power_state.pwrStateResidencyTicks::UNDEFINED 290269688500                       # Cumulative time (in ticks) in various power states
system.cpu.decode.idleCycles                356219681                       # Number of cycles decode is idle
system.cpu.decode.blockedCycles              35489407                       # Number of cycles decode is blocked
system.cpu.decode.runCycles                 137431946                       # Number of cycles decode is running
system.cpu.decode.unblockCycles               3055102                       # Number of cycles decode is unblocking
system.cpu.decode.squashCycles                6948363                       # Number of cycles decode is squashing
system.cpu.decode.branchResolved             53311509                       # Number of times decode resolved a  branch
system.cpu.decode.branchMispred               2002388                       # Number of times decode detected a branch misprediction
system.cpu.decode.decodedInsts              740738002                       # Number of instructions handled by decode
system.cpu.decode.squashedInsts               5321380                       # Number of squashed instructions handled by decode
system.cpu.dtb.instHits                             0                       # ITB inst hits
system.cpu.dtb.instMisses                           0                       # ITB inst misses
system.cpu.dtb.readHits                             0                       # DTB read hits
system.cpu.dtb.readMisses                           0                       # DTB read misses
system.cpu.dtb.writeHits                            0                       # DTB write hits
system.cpu.dtb.writeMisses                          0                       # DTB write misses
system.cpu.dtb.inserts                              0                       # Number of times an entry is inserted into the TLB
system.cpu.dtb.flushTlb                             2                       # Number of times complete TLB was flushed
system.cpu.dtb.flushTlbMva                          0                       # Number of times TLB was flushed by MVA
system.cpu.dtb.flushTlbMvaAsid                      0                       # Number of times TLB was flushed by MVA & ASID
system.cpu.dtb.flushTlbAsid                         0                       # Number of times TLB was flushed by ASID
system.cpu.dtb.flushedEntries                       0                       # Number of entries that have been flushed from TLB
system.cpu.dtb.alignFaults                          0                       # Number of TLB faults due to alignment restrictions
system.cpu.dtb.prefetchFaults                       0                       # Number of TLB faults due to prefetch
system.cpu.dtb.domainFaults                         0                       # Number of TLB faults due to domain restrictions
system.cpu.dtb.permsFaults                          0                       # Number of TLB faults due to permissions restrictions
system.cpu.dtb.readAccesses                         0                       # DTB read accesses
system.cpu.dtb.writeAccesses                        0                       # DTB write accesses
system.cpu.dtb.instAccesses                         0                       # ITB inst accesses
system.cpu.dtb.hits                                 0                       # Total TLB (inst and data) hits
system.cpu.dtb.misses                               0                       # Total TLB (inst and data) misses
system.cpu.dtb.accesses                             0                       # Total TLB (inst and data) accesses
system.cpu.dtb.stage2_mmu.stage2_tlb.instHits            0                       # ITB inst hits
system.cpu.dtb.stage2_mmu.stage2_tlb.instMisses            0                       # ITB inst misses
system.cpu.dtb.stage2_mmu.stage2_tlb.readHits            0                       # DTB read hits
system.cpu.dtb.stage2_mmu.stage2_tlb.readMisses            0                       # DTB read misses
system.cpu.dtb.stage2_mmu.stage2_tlb.writeHits            0                       # DTB write hits
system.cpu.dtb.stage2_mmu.stage2_tlb.writeMisses            0                       # DTB write misses
system.cpu.dtb.stage2_mmu.stage2_tlb.inserts            0                       # Number of times an entry is inserted into the TLB
system.cpu.dtb.stage2_mmu.stage2_tlb.flushTlb            0                       # Number of times complete TLB was flushed
system.cpu.dtb.stage2_mmu.stage2_tlb.flushTlbMva            0                       # Number of times TLB was flushed by MVA
system.cpu.dtb.stage2_mmu.stage2_tlb.flushTlbMvaAsid            0                       # Number of times TLB was flushed by MVA & ASID
system.cpu.dtb.stage2_mmu.stage2_tlb.flushTlbAsid            0                       # Number of times TLB was flushed by ASID
system.cpu.dtb.stage2_mmu.stage2_tlb.flushedEntries            0                       # Number of entries that have been flushed from TLB
system.cpu.dtb.stage2_mmu.stage2_tlb.alignFaults            0                       # Number of TLB faults due to alignment restrictions
system.cpu.dtb.stage2_mmu.stage2_tlb.prefetchFaults            0                       # Number of TLB faults due to prefetch
system.cpu.dtb.stage2_mmu.stage2_tlb.domainFaults            0                       # Number of TLB faults due to domain restrictions
system.cpu.dtb.stage2_mmu.stage2_tlb.permsFaults            0                       # Number of TLB faults due to permissions restrictions
system.cpu.dtb.stage2_mmu.stage2_tlb.readAccesses            0                       # DTB read accesses
system.cpu.dtb.stage2_mmu.stage2_tlb.writeAccesses            0                       # DTB write accesses
system.cpu.dtb.stage2_mmu.stage2_tlb.instAccesses            0                       # ITB inst accesses
system.cpu.dtb.stage2_mmu.stage2_tlb.hits            0                       # Total TLB (inst and data) hits
system.cpu.dtb.stage2_mmu.stage2_tlb.misses            0                       # Total TLB (inst and data) misses
system.cpu.dtb.stage2_mmu.stage2_tlb.accesses            0                       # Total TLB (inst and data) accesses
system.cpu.dtb.stage2_mmu.stage2_tlb.walker.walks            0                       # Table walker walks requested
system.cpu.dtb.stage2_mmu.stage2_tlb.walker.requestOrigin_Requested::Data            0                       # Table walker requests started/completed, data/inst
system.cpu.dtb.stage2_mmu.stage2_tlb.walker.requestOrigin_Requested::Inst            0                       # Table walker requests started/completed, data/inst
system.cpu.dtb.stage2_mmu.stage2_tlb.walker.requestOrigin_Requested::total            0                       # Table walker requests started/completed, data/inst
system.cpu.dtb.stage2_mmu.stage2_tlb.walker.requestOrigin_Completed::Data            0                       # Table walker requests started/completed, data/inst
system.cpu.dtb.stage2_mmu.stage2_tlb.walker.requestOrigin_Completed::Inst            0                       # Table walker requests started/completed, data/inst
system.cpu.dtb.stage2_mmu.stage2_tlb.walker.requestOrigin_Completed::total            0                       # Table walker requests started/completed, data/inst
system.cpu.dtb.stage2_mmu.stage2_tlb.walker.requestOrigin::total            0                       # Table walker requests started/completed, data/inst
system.cpu.dtb.stage2_mmu.stage2_tlb.walker.power_state.pwrStateResidencyTicks::UNDEFINED 290269688500                       # Cumulative time (in ticks) in various power states
system.cpu.dtb.walker.walks                         0                       # Table walker walks requested
system.cpu.dtb.walker.requestOrigin_Requested::Data            0                       # Table walker requests started/completed, data/inst
system.cpu.dtb.walker.requestOrigin_Requested::Inst            0                       # Table walker requests started/completed, data/inst
system.cpu.dtb.walker.requestOrigin_Requested::total            0                       # Table walker requests started/completed, data/inst
system.cpu.dtb.walker.requestOrigin_Completed::Data            0                       # Table walker requests started/completed, data/inst
system.cpu.dtb.walker.requestOrigin_Completed::Inst            0                       # Table walker requests started/completed, data/inst
system.cpu.dtb.walker.requestOrigin_Completed::total            0                       # Table walker requests started/completed, data/inst
system.cpu.dtb.walker.requestOrigin::total            0                       # Table walker requests started/completed, data/inst
system.cpu.dtb.walker.power_state.pwrStateResidencyTicks::UNDEFINED 290269688500                       # Cumulative time (in ticks) in various power states
system.cpu.fetch.icacheStallCycles          364809314                       # Number of cycles fetch is stalled on an Icache miss
system.cpu.fetch.insts                      645246457                       # Number of instructions fetch has processed
system.cpu.fetch.branches                   134386968                       # Number of branches that fetch encountered
system.cpu.fetch.predictedBranches           67475021                       # Number of branches that fetch has predicted taken
system.cpu.fetch.cycles                     165399579                       # Number of cycles fetch has run and was not squashing or blocked
system.cpu.fetch.squashCycles                17838884                       # Number of cycles fetch has spent squashing
system.cpu.fetch.miscStallCycles                 3445                       # Number of cycles fetch has spent waiting on interrupts,or bad addresses, or out of MSHRs
system.cpu.fetch.pendingTrapStallCycles         10051                       # Number of stall cycles due to pending traps
system.cpu.fetch.icacheWaitRetryStallCycles         2668                       # Number of stall cycles due to full MSHR
system.cpu.fetch.cacheLines                  97700883                       # Number of cache lines fetched
system.cpu.fetch.icacheSquashes               5920922                       # Number of outstanding Icache misses that were squashed
system.cpu.fetch.nisnDist::samples          539144499                       # Number of instructions fetched each cycle (Total)
system.cpu.fetch.nisnDist::mean              1.425758                       # Number of instructions fetched each cycle (Total)
system.cpu.fetch.nisnDist::stdev             2.704224                       # Number of instructions fetched each cycle (Total)
system.cpu.fetch.nisnDist::underflows               0      0.00%      0.00% # Number of instructions fetched each cycle (Total)
system.cpu.fetch.nisnDist::0                392483964     72.80%     72.80% # Number of instructions fetched each cycle (Total)
system.cpu.fetch.nisnDist::1                 13941733      2.59%     75.38% # Number of instructions fetched each cycle (Total)
system.cpu.fetch.nisnDist::2                 19274592      3.58%     78.96% # Number of instructions fetched each cycle (Total)
system.cpu.fetch.nisnDist::3                 16300214      3.02%     81.98% # Number of instructions fetched each cycle (Total)
system.cpu.fetch.nisnDist::4                 12314603      2.28%     84.27% # Number of instructions fetched each cycle (Total)
system.cpu.fetch.nisnDist::5                 10156591      1.88%     86.15% # Number of instructions fetched each cycle (Total)
system.cpu.fetch.nisnDist::6                 11386293      2.11%     88.26% # Number of instructions fetched each cycle (Total)
system.cpu.fetch.nisnDist::7                  7353209      1.36%     89.63% # Number of instructions fetched each cycle (Total)
system.cpu.fetch.nisnDist::8                 55933300     10.37%    100.00% # Number of instructions fetched each cycle (Total)
system.cpu.fetch.nisnDist::overflows                0      0.00%    100.00% # Number of instructions fetched each cycle (Total)
system.cpu.fetch.nisnDist::min_value                0                       # Number of instructions fetched each cycle (Total)
system.cpu.fetch.nisnDist::max_value                8                       # Number of instructions fetched each cycle (Total)
system.cpu.fetch.nisnDist::total            539144499                       # Number of instructions fetched each cycle (Total)
system.cpu.fetch.branchRate                  0.231486                       # Number of branch fetches per cycle
system.cpu.fetch.rate                        1.111458                       # Number of inst fetches per cycle
system.cpu.icache.demand_hits::.cpu.inst     81534369                       # number of demand (read+write) hits
system.cpu.icache.demand_hits::total         81534369                       # number of demand (read+write) hits
system.cpu.icache.overall_hits::.cpu.inst     81534369                       # number of overall hits
system.cpu.icache.overall_hits::total        81534369                       # number of overall hits
system.cpu.icache.demand_misses::.cpu.inst     16166488                       # number of demand (read+write) misses
system.cpu.icache.demand_misses::total       16166488                       # number of demand (read+write) misses
system.cpu.icache.overall_misses::.cpu.inst     16166488                       # number of overall misses
system.cpu.icache.overall_misses::total      16166488                       # number of overall misses
system.cpu.icache.demand_miss_latency::.cpu.inst 207395769882                       # number of demand (read+write) miss cycles
system.cpu.icache.demand_miss_latency::total 207395769882                       # number of demand (read+write) miss cycles
system.cpu.icache.overall_miss_latency::.cpu.inst 207395769882                       # number of overall miss cycles
system.cpu.icache.overall_miss_latency::total 207395769882                       # number of overall miss cycles
system.cpu.icache.demand_accesses::.cpu.inst     97700857                       # number of demand (read+write) accesses
system.cpu.icache.demand_accesses::total     97700857                       # number of demand (read+write) accesses
system.cpu.icache.overall_accesses::.cpu.inst     97700857                       # number of overall (read+write) accesses
system.cpu.icache.overall_accesses::total     97700857                       # number of overall (read+write) accesses
system.cpu.icache.demand_miss_rate::.cpu.inst     0.165469                       # miss rate for demand accesses
system.cpu.icache.demand_miss_rate::total     0.165469                       # miss rate for demand accesses
system.cpu.icache.overall_miss_rate::.cpu.inst     0.165469                       # miss rate for overall accesses
system.cpu.icache.overall_miss_rate::total     0.165469                       # miss rate for overall accesses
system.cpu.icache.demand_avg_miss_latency::.cpu.inst 12828.746100                       # average overall miss latency
system.cpu.icache.demand_avg_miss_latency::total 12828.746100                       # average overall miss latency
system.cpu.icache.overall_avg_miss_latency::.cpu.inst 12828.746100                       # average overall miss latency
system.cpu.icache.overall_avg_miss_latency::total 12828.746100                       # average overall miss latency
system.cpu.icache.blocked_cycles::no_mshrs        50353                       # number of cycles access was blocked
system.cpu.icache.blocked_cycles::no_targets            0                       # number of cycles access was blocked
system.cpu.icache.blocked::no_mshrs              7278                       # number of cycles access was blocked
system.cpu.icache.blocked::no_targets               0                       # number of cycles access was blocked
system.cpu.icache.avg_blocked_cycles::no_mshrs     6.918522                       # average number of cycles each access was blocked
system.cpu.icache.avg_blocked_cycles::no_targets          nan                       # average number of cycles each access was blocked
system.cpu.icache.ghost_timestamp_misses            0                       # number of times timestamp policy causes a block to be inaccessible
system.cpu.icache.ghost_commits                     0                       # number of cache lines moved from ghost to main
system.cpu.icache.same_leapfrogs                    0                       # number of times leapfrogging occurs with a shared MSHR request
system.cpu.icache.writebacks::.writebacks     15136391                       # number of writebacks
system.cpu.icache.writebacks::total          15136391                       # number of writebacks
system.cpu.icache.demand_mshr_hits::.cpu.inst      1028837                       # number of demand (read+write) MSHR hits
system.cpu.icache.demand_mshr_hits::total      1028837                       # number of demand (read+write) MSHR hits
system.cpu.icache.overall_mshr_hits::.cpu.inst      1028837                       # number of overall MSHR hits
system.cpu.icache.overall_mshr_hits::total      1028837                       # number of overall MSHR hits
system.cpu.icache.demand_mshr_misses::.cpu.inst     15137651                       # number of demand (read+write) MSHR misses
system.cpu.icache.demand_mshr_misses::total     15137651                       # number of demand (read+write) MSHR misses
system.cpu.icache.overall_mshr_misses::.cpu.inst     15137651                       # number of overall MSHR misses
system.cpu.icache.overall_mshr_misses::total     15137651                       # number of overall MSHR misses
system.cpu.icache.demand_mshr_miss_latency::.cpu.inst 184807331937                       # number of demand (read+write) MSHR miss cycles
system.cpu.icache.demand_mshr_miss_latency::total 184807331937                       # number of demand (read+write) MSHR miss cycles
system.cpu.icache.overall_mshr_miss_latency::.cpu.inst 184807331937                       # number of overall MSHR miss cycles
system.cpu.icache.overall_mshr_miss_latency::total 184807331937                       # number of overall MSHR miss cycles
system.cpu.icache.demand_mshr_miss_rate::.cpu.inst     0.154939                       # mshr miss rate for demand accesses
system.cpu.icache.demand_mshr_miss_rate::total     0.154939                       # mshr miss rate for demand accesses
system.cpu.icache.overall_mshr_miss_rate::.cpu.inst     0.154939                       # mshr miss rate for overall accesses
system.cpu.icache.overall_mshr_miss_rate::total     0.154939                       # mshr miss rate for overall accesses
system.cpu.icache.demand_avg_mshr_miss_latency::.cpu.inst 12208.455059                       # average overall mshr miss latency
system.cpu.icache.demand_avg_mshr_miss_latency::total 12208.455059                       # average overall mshr miss latency
system.cpu.icache.overall_avg_mshr_miss_latency::.cpu.inst 12208.455059                       # average overall mshr miss latency
system.cpu.icache.overall_avg_mshr_miss_latency::total 12208.455059                       # average overall mshr miss latency
system.cpu.icache.replacements               15136391                       # number of replacements
system.cpu.icache.ReadReq_hits::.cpu.inst     81534369                       # number of ReadReq hits
[...]
system.mem_ctrls.dram.perBankWrBursts::2        10315                       # Per bank write bursts
system.mem_ctrls.dram.perBankWrBursts::3        10176                       # Per bank write bursts
system.mem_ctrls.dram.perBankWrBursts::4         9986                       # Per bank write bursts
system.mem_ctrls.dram.perBankWrBursts::5         9809                       # Per bank write bursts
system.mem_ctrls.dram.perBankWrBursts::6        10147                       # Per bank write bursts
system.mem_ctrls.dram.perBankWrBursts::7         9858                       # Per bank write bursts
system.mem_ctrls.dram.perBankWrBursts::8         9869                       # Per bank write bursts
system.mem_ctrls.dram.perBankWrBursts::9        10397                       # Per bank write bursts
system.mem_ctrls.dram.perBankWrBursts::10        10219                       # Per bank write bursts
system.mem_ctrls.dram.perBankWrBursts::11        10041                       # Per bank write bursts
system.mem_ctrls.dram.perBankWrBursts::12         9959                       # Per bank write bursts
system.mem_ctrls.dram.perBankWrBursts::13         9583                       # Per bank write bursts
system.mem_ctrls.dram.perBankWrBursts::14        10066                       # Per bank write bursts
system.mem_ctrls.dram.perBankWrBursts::15         9981                       # Per bank write bursts
system.mem_ctrls.dram.perBankWrBursts::16        10089                       # Per bank write bursts
system.mem_ctrls.dram.perBankWrBursts::17        10594                       # Per bank write bursts
system.mem_ctrls.dram.perBankWrBursts::18         9937                       # Per bank write bursts
system.mem_ctrls.dram.perBankWrBursts::19        10402                       # Per bank write bursts
system.mem_ctrls.dram.perBankWrBursts::20        10559                       # Per bank write bursts
system.mem_ctrls.dram.perBankWrBursts::21        10131                       # Per bank write bursts
system.mem_ctrls.dram.perBankWrBursts::22        10505                       # Per bank write bursts
system.mem_ctrls.dram.perBankWrBursts::23        10185                       # Per bank write bursts
system.mem_ctrls.dram.perBankWrBursts::24         9804                       # Per bank write bursts
system.mem_ctrls.dram.perBankWrBursts::25         9973                       # Per bank write bursts
system.mem_ctrls.dram.perBankWrBursts::26         9994                       # Per bank write bursts
system.mem_ctrls.dram.perBankWrBursts::27        10165                       # Per bank write bursts
system.mem_ctrls.dram.perBankWrBursts::28        10347                       # Per bank write bursts
system.mem_ctrls.dram.perBankWrBursts::29        10178                       # Per bank write bursts
system.mem_ctrls.dram.perBankWrBursts::30        10368                       # Per bank write bursts
system.mem_ctrls.dram.perBankWrBursts::31         9879                       # Per bank write bursts
system.mem_ctrls.dram.totQLat              9169170611                       # Total ticks spent queuing
system.mem_ctrls.dram.totBusLat            1457200220                       # Total ticks spent in databus transfers
system.mem_ctrls.dram.totMemAccLat        16819034431                       # Total ticks spent from burst creation until serviced by the DRAM
system.mem_ctrls.dram.avgQLat                20966.01                       # Average queueing delay per DRAM burst
system.mem_ctrls.dram.avgBusLat               3332.00                       # Average bus latency per DRAM burst
system.mem_ctrls.dram.avgMemAccLat           38458.01                       # Average memory access latency per DRAM burst
system.mem_ctrls.dram.readRowHits              271719                       # Number of row buffer hits during reads
system.mem_ctrls.dram.writeRowHits             170335                       # Number of row buffer hits during writes
system.mem_ctrls.dram.readRowHitRate            62.13                       # Row buffer hit rate for reads
system.mem_ctrls.dram.writeRowHitRate           52.64                       # Row buffer hit rate for writes
system.mem_ctrls.dram.bytesPerActivate::samples       318871                       # Bytes accessed per row activation
system.mem_ctrls.dram.bytesPerActivate::mean   152.722223                       # Bytes accessed per row activation
system.mem_ctrls.dram.bytesPerActivate::gmean   111.766512                       # Bytes accessed per row activation
system.mem_ctrls.dram.bytesPerActivate::stdev   158.536761                       # Bytes accessed per row activation
system.mem_ctrls.dram.bytesPerActivate::0-127       171429     53.76%     53.76% # Bytes accessed per row activation
system.mem_ctrls.dram.bytesPerActivate::128-255        90597     28.41%     82.17% # Bytes accessed per row activation
system.mem_ctrls.dram.bytesPerActivate::256-383        29033      9.10%     91.28% # Bytes accessed per row activation
system.mem_ctrls.dram.bytesPerActivate::384-511        12208      3.83%     95.11% # Bytes accessed per row activation
system.mem_ctrls.dram.bytesPerActivate::512-639         6967      2.18%     97.29% # Bytes accessed per row activation
system.mem_ctrls.dram.bytesPerActivate::640-767         3230      1.01%     98.30% # Bytes accessed per row activation
system.mem_ctrls.dram.bytesPerActivate::768-895         1891      0.59%     98.90% # Bytes accessed per row activation
system.mem_ctrls.dram.bytesPerActivate::896-1023          785      0.25%     99.14% # Bytes accessed per row activation
system.mem_ctrls.dram.bytesPerActivate::1024-1151         2731      0.86%    100.00% # Bytes accessed per row activation
system.mem_ctrls.dram.bytesPerActivate::total       318871                       # Bytes accessed per row activation
system.mem_ctrls.dram.bytesRead              27989440                       # Total number of bytes read from DRAM
system.mem_ctrls.dram.bytesWritten           20710208                       # Total number of bytes written to DRAM
system.mem_ctrls.dram.avgRdBW               96.425638                       # Average DRAM read bandwidth in MiBytes/s
system.mem_ctrls.dram.avgWrBW               71.348159                       # Average DRAM write bandwidth in MiBytes/s
system.mem_ctrls.dram.peakBW                 19207.00                       # Theoretical peak bandwidth in MiByte/s
system.mem_ctrls.dram.busUtil                    0.87                       # Data bus utilization in percentage
system.mem_ctrls.dram.busUtilRead                0.50                       # Data bus utilization in percentage for reads
system.mem_ctrls.dram.busUtilWrite               0.37                       # Data bus utilization in percentage for writes
system.mem_ctrls.dram.pageHitRate               58.09                       # Row buffer hit rate, read and write combined
system.mem_ctrls.dram.power_state.pwrStateResidencyTicks::UNDEFINED 290269688500                       # Cumulative time (in ticks) in various power states
system.mem_ctrls.dram.rank0.actEnergy    244861016.399986                       # Energy for activate commands per rank (pJ)
system.mem_ctrls.dram.rank0.preEnergy    432265612.564849                       # Energy for precharge commands per rank (pJ)
system.mem_ctrls.dram.rank0.readEnergy   596737617.436786                       # Energy for read commands per rank (pJ)
system.mem_ctrls.dram.rank0.writeEnergy  378597820.271991                       # Energy for write commands per rank (pJ)
system.mem_ctrls.dram.rank0.refreshEnergy 25196570744.627731                       # Energy for refresh commands per rank (pJ)
system.mem_ctrls.dram.rank0.actBackEnergy 85191804574.032089                       # Energy for active background per rank (pJ)
system.mem_ctrls.dram.rank0.preBackEnergy 35931410132.616791                       # Energy for precharge background per rank (pJ)
system.mem_ctrls.dram.rank0.actPowerDownEnergy            0                       # Energy for active power-down per rank (pJ)
system.mem_ctrls.dram.rank0.prePowerDownEnergy            0                       # Energy for precharge power-down per rank (pJ)
system.mem_ctrls.dram.rank0.selfRefreshEnergy            0                       # Energy for self refresh per rank (pJ)
system.mem_ctrls.dram.rank0.totalEnergy  147972247517.949432                       # Total energy per rank (pJ)
system.mem_ctrls.dram.rank0.averagePower   509.775059                       # Core power per rank (mW)
system.mem_ctrls.dram.rank0.totalIdleTime            0                       # Total Idle time Per DRAM Rank
system.mem_ctrls.dram.rank0.pwrStateTime::IDLE 109133217149                       # Time in different power states
system.mem_ctrls.dram.rank0.pwrStateTime::REF  13048350000                       # Time in different power states
system.mem_ctrls.dram.rank0.pwrStateTime::SREF            0                       # Time in different power states
system.mem_ctrls.dram.rank0.pwrStateTime::PRE_PDN            0                       # Time in different power states
system.mem_ctrls.dram.rank0.pwrStateTime::ACT 168088121351                       # Time in different power states
system.mem_ctrls.dram.rank0.pwrStateTime::ACT_PDN            0                       # Time in different power states
system.mem_ctrls.dram.rank1.actEnergy    252389683.727988                       # Energy for activate commands per rank (pJ)
system.mem_ctrls.dram.rank1.preEnergy    445553853.141654                       # Energy for precharge commands per rank (pJ)
system.mem_ctrls.dram.rank1.readEnergy   602829603.667181                       # Energy for read commands per rank (pJ)
system.mem_ctrls.dram.rank1.writeEnergy  384785624.159989                       # Energy for write commands per rank (pJ)
system.mem_ctrls.dram.rank1.refreshEnergy 25196570744.627731                       # Energy for refresh commands per rank (pJ)
system.mem_ctrls.dram.rank1.actBackEnergy 88566757464.668350                       # Energy for active background per rank (pJ)
system.mem_ctrls.dram.rank1.preBackEnergy 33601493416.239861                       # Energy for precharge background per rank (pJ)
system.mem_ctrls.dram.rank1.actPowerDownEnergy            0                       # Energy for active power-down per rank (pJ)
system.mem_ctrls.dram.rank1.prePowerDownEnergy            0                       # Energy for precharge power-down per rank (pJ)
system.mem_ctrls.dram.rank1.selfRefreshEnergy            0                       # Energy for self refresh per rank (pJ)
system.mem_ctrls.dram.rank1.totalEnergy  149050380390.231140                       # Total energy per rank (pJ)
system.mem_ctrls.dram.rank1.averagePower   513.489304                       # Core power per rank (mW)
system.mem_ctrls.dram.rank1.totalIdleTime            0                       # Total Idle time Per DRAM Rank
system.mem_ctrls.dram.rank1.pwrStateTime::IDLE 101981086525                       # Time in different power states
system.mem_ctrls.dram.rank1.pwrStateTime::REF  13048350000                       # Time in different power states
system.mem_ctrls.dram.rank1.pwrStateTime::SREF            0                       # Time in different power states
system.mem_ctrls.dram.rank1.pwrStateTime::PRE_PDN            0                       # Time in different power states
system.mem_ctrls.dram.rank1.pwrStateTime::ACT 175240251975                       # Time in different power states
system.mem_ctrls.dram.rank1.pwrStateTime::ACT_PDN            0                       # Time in different power states
system.mem_ctrls.power_state.pwrStateResidencyTicks::UNDEFINED 290269688500                       # Cumulative time (in ticks) in various power states
system.membus.trans_dist::ReadResp             166768                       # Transaction distribution
system.membus.trans_dist::WritebackDirty       323646                       # Transaction distribution
system.membus.trans_dist::CleanEvict            33404                       # Transaction distribution
system.membus.trans_dist::UpgradeReq              775                       # Transaction distribution
system.membus.trans_dist::ReadExReq            270581                       # Transaction distribution
system.membus.trans_dist::ReadExResp           270581                       # Transaction distribution
system.membus.trans_dist::ReadCleanReq         166768                       # Transaction distribution
system.membus.trans_dist::InvalidateReq         51478                       # Transaction distribution
system.membus.pkt_count_system.l2.mem_side_port::system.mem_ctrls.port      1284001                       # Packet count per connected requestor and responder (bytes)
system.membus.pkt_count::total                1284001                       # Packet count per connected requestor and responder (bytes)
system.membus.pkt_size_system.l2.mem_side_port::system.mem_ctrls.port     48703680                       # Cumulative packet size per connected requestor and responder (bytes)
system.membus.pkt_size::total                48703680                       # Cumulative packet size per connected requestor and responder (bytes)
system.membus.snoops                                0                       # Total snoops (count)
system.membus.snoopTraffic                          0                       # Total snoop traffic (bytes)
system.membus.snoop_fanout::samples            489602                       # Request fanout histogram
system.membus.snoop_fanout::mean                    0                       # Request fanout histogram
system.membus.snoop_fanout::stdev                   0                       # Request fanout histogram
system.membus.snoop_fanout::underflows              0      0.00%      0.00% # Request fanout histogram
system.membus.snoop_fanout::0                  489602    100.00%    100.00% # Request fanout histogram
system.membus.snoop_fanout::1                       0      0.00%    100.00% # Request fanout histogram
system.membus.snoop_fanout::overflows               0      0.00%    100.00% # Request fanout histogram
system.membus.snoop_fanout::min_value               0                       # Request fanout histogram
system.membus.snoop_fanout::max_value               0                       # Request fanout histogram
system.membus.snoop_fanout::total              489602                       # Request fanout histogram
system.membus.power_state.pwrStateResidencyTicks::UNDEFINED 290269688500                       # Cumulative time (in ticks) in various power states
system.membus.reqLayer0.occupancy          2302031280                       # Layer occupancy (ticks)
system.membus.reqLayer0.utilization               0.8                       # Layer utilization (%)
system.membus.respLayer1.occupancy         2313031781                       # Layer occupancy (ticks)
system.membus.respLayer1.utilization              0.8                       # Layer utilization (%)
system.tol2bus.trans_dist::ReadResp          17201444                       # Transaction distribution
system.tol2bus.trans_dist::WritebackDirty      2709711                       # Transaction distribution
system.tol2bus.trans_dist::WritebackClean     15619581                       # Transaction distribution
system.tol2bus.trans_dist::CleanEvict           33404                       # Transaction distribution
system.tol2bus.trans_dist::HardPFReq           171830                       # Transaction distribution
system.tol2bus.trans_dist::HardPFResp               1                       # Transaction distribution
system.tol2bus.trans_dist::UpgradeReq             786                       # Transaction distribution
system.tol2bus.trans_dist::UpgradeResp            786                       # Transaction distribution
system.tol2bus.trans_dist::ReadExReq           733354                       # Transaction distribution
system.tol2bus.trans_dist::ReadExResp          733354                       # Transaction distribution
system.tol2bus.trans_dist::ReadCleanReq      15137651                       # Transaction distribution
system.tol2bus.trans_dist::ReadSharedReq      2063793                       # Transaction distribution
system.tol2bus.trans_dist::InvalidateReq        72622                       # Transaction distribution
system.tol2bus.trans_dist::InvalidateResp        72622                       # Transaction distribution
system.tol2bus.pkt_count_system.cpu.icache.mem_side_port::system.l2.cpu_side_port     45410661                       # Packet count per connected requestor and responder (bytes)
system.tol2bus.pkt_count_system.cpu.dcache.mem_side_port::system.l2.cpu_side_port      8610366                       # Packet count per connected requestor and responder (bytes)
system.tol2bus.pkt_count::total              54021027                       # Packet count per connected requestor and responder (bytes)
system.tol2bus.pkt_size_system.cpu.icache.mem_side_port::system.l2.cpu_side_port   1937472640                       # Cumulative packet size per connected requestor and responder (bytes)
system.tol2bus.pkt_size_system.cpu.dcache.mem_side_port::system.l2.cpu_side_port    362649792                       # Cumulative packet size per connected requestor and responder (bytes)
system.tol2bus.pkt_size::total             2300122432                       # Cumulative packet size per connected requestor and responder (bytes)
system.tol2bus.snoops                          529913                       # Total snoops (count)
system.tol2bus.snoopTraffic                  20779456                       # Total snoop traffic (bytes)
system.tol2bus.snoop_fanout::samples         18537086                       # Request fanout histogram
system.tol2bus.snoop_fanout::mean            0.005286                       # Request fanout histogram
system.tol2bus.snoop_fanout::stdev           0.072595                       # Request fanout histogram
system.tol2bus.snoop_fanout::underflows             0      0.00%      0.00% # Request fanout histogram
system.tol2bus.snoop_fanout::0               18439217     99.47%     99.47% # Request fanout histogram
system.tol2bus.snoop_fanout::1                  97756      0.53%    100.00% # Request fanout histogram
system.tol2bus.snoop_fanout::2                    113      0.00%    100.00% # Request fanout histogram
system.tol2bus.snoop_fanout::overflows              0      0.00%    100.00% # Request fanout histogram
system.tol2bus.snoop_fanout::min_value              0                       # Request fanout histogram
system.tol2bus.snoop_fanout::max_value              2                       # Request fanout histogram
system.tol2bus.snoop_fanout::total           18537086                       # Request fanout histogram
system.tol2bus.power_state.pwrStateResidencyTicks::UNDEFINED 290269688500                       # Cumulative time (in ticks) in various power states
system.tol2bus.reqLayer0.occupancy        36012572000                       # Layer occupancy (ticks)
system.tol2bus.reqLayer0.utilization             12.4                       # Layer utilization (%)
system.tol2bus.respLayer0.occupancy       22712356716                       # Layer occupancy (ticks)
system.tol2bus.respLayer0.utilization             7.8                       # Layer utilization (%)
system.tol2bus.respLayer1.occupancy        4236088657                       # Layer occupancy (ticks)
system.tol2bus.respLayer1.utilization             1.5                       # Layer utilization (%)
system.tol2bus.snoopLayer0.occupancy             1501                       # Layer occupancy (ticks)
system.tol2bus.snoopLayer0.utilization            0.0                       # Layer utilization (%)
system.voltage_domain.voltage                       1                       # Voltage in Volts

---------- End Simulation Statistics   ----------
