
---------- Begin Simulation Statistics ----------
final_tick                               921524893000                       # Number of ticks from beginning of simulation (restored from checkpoints and never reset)
host_inst_rate                                  47358                       # Simulator instruction rate (inst/s)
host_mem_usage                               10776288                       # Number of bytes of host memory used
host_op_rate                                    89316                       # Simulator op (including micro ops) rate (op/s)
host_seconds                                 10557.88                       # Real time elapsed on the host
host_tick_rate                               87283101                       # Simulator tick rate (ticks/s)
sim_freq                                 1000000000000                       # Frequency of simulated ticks
sim_insts                                   500000000                       # Number of instructions simulated
sim_ops                                     942985765                       # Number of ops (including micro ops) simulated
sim_seconds                                  0.921525                       # Number of seconds simulated
sim_ticks                                921524893000                       # Number of ticks simulated
system.cpu.cc_regfile_reads                 161818401                       # number of cc regfile reads
system.cpu.cc_regfile_writes                162435386                       # number of cc regfile writes
system.cpu.committedInsts                   500000000                       # Number of Instructions Simulated
system.cpu.committedOps                     942985765                       # Number of Ops (including micro ops) Simulated
system.cpu.cpi                               3.686100                       # CPI: Cycles Per Instruction
system.cpu.cpi_total                         3.686100                       # CPI: Total CPI of All Threads
system.cpu.dcache.MSHRs.leapFrogMisses              7                       # number of false blocks from MSHR
system.cpu.icache.MSHRs.leapFrogMisses              0                       # number of false blocks from MSHR
system.cpu.idleCycles                          102988                       # Total number of cycles that the CPU has spent unscheduled due to idling
system.cpu.iew.branchMispredicts              1011152                       # Number of branch mispredicts detected at execute
system.cpu.iew.exec_branches                 88455587                       # Number of branches executed
system.cpu.iew.exec_nop                         52838                       # number of nop insts executed
system.cpu.iew.exec_rate                     0.567848                       # Inst execution rate
system.cpu.iew.exec_refs                    635804864                       # number of memory reference insts executed
system.cpu.iew.exec_stores                  520781292                       # Number of stores executed
system.cpu.iew.exec_swp                             0                       # number of swp insts executed
system.cpu.iew.iewBlockCycles               148177786                       # Number of cycles IEW is blocking
system.cpu.iew.iewDispLoadInsts              76910671                       # Number of dispatched load instructions
system.cpu.iew.iewDispNonSpecInsts               1675                       # Number of dispatched non-speculative instructions
system.cpu.iew.iewDispSquashedInsts            925363                       # Number of squashed instructions skipped by dispatch
system.cpu.iew.iewDispStoreInsts            528113052                       # Number of dispatched store instructions
system.cpu.iew.iewDispatchedInsts          1029561528                       # Number of instructions dispatched to IQ
system.cpu.iew.iewExecLoadInsts             115023572                       # Number of load instructions executed
system.cpu.iew.iewExecSquashedInsts           1526599                       # Number of squashed instructions skipped in execute
system.cpu.iew.iewExecutedInsts            1046572626                       # Number of executed instructions
system.cpu.iew.iewIQFullEvents                3206420                       # Number of times the IQ has become full, causing a stall
system.cpu.iew.iewIdleCycles                        0                       # Number of cycles IEW is idle
system.cpu.iew.iewLSQFullEvents             211639839                       # Number of times the LSQ has become full, causing a stall
system.cpu.iew.iewSquashCycles                1830691                       # Number of cycles IEW is squashing
system.cpu.iew.iewUnblockCycles             214995403                       # Number of cycles IEW is unblocking
system.cpu.iew.memOrderViolationEvents           3021                       # Number of memory order violations
system.cpu.iew.predictedNotTakenIncorrect       508753                       # Number of branches that were predicted not taken incorrectly
system.cpu.iew.predictedTakenIncorrect         502399                       # Number of branches that were predicted taken incorrectly
system.cpu.iew.wb_consumers                 697152191                       # num instructions consuming a value
system.cpu.iew.wb_count                     982242460                       # cumulative count of insts written-back
system.cpu.iew.wb_fanout                     0.412572                       # average fanout of values written-back
system.cpu.iew.wb_producers                 287625278                       # num instructions producing a value
system.cpu.iew.wb_rate                       0.532944                       # insts written-back per cycle
system.cpu.iew.wb_sent                     1002193990                       # cumulative count of insts sent to commit
system.cpu.int_regfile_reads               1162851243                       # number of integer regfile reads
system.cpu.int_regfile_writes               436850898                       # number of integer regfile writes
system.cpu.ipc                               0.271289                       # IPC: Instructions Per Cycle
system.cpu.ipc_total                         0.271289                       # IPC: Total IPC of All Threads
system.cpu.iq.FU_type_0::No_OpClass                56      0.00%      0.00% # Type of FU issued
system.cpu.iq.FU_type_0::IntAlu             411965952     39.31%     39.31% # Type of FU issued
system.cpu.iq.FU_type_0::IntMult                   75      0.00%     39.31% # Type of FU issued
system.cpu.iq.FU_type_0::IntDiv                    12      0.00%     39.31% # Type of FU issued
system.cpu.iq.FU_type_0::FloatAdd                   0      0.00%     39.31% # Type of FU issued
system.cpu.iq.FU_type_0::FloatCmp                   2      0.00%     39.31% # Type of FU issued
system.cpu.iq.FU_type_0::FloatCvt                   0      0.00%     39.31% # Type of FU issued
system.cpu.iq.FU_type_0::FloatMult                  0      0.00%     39.31% # Type of FU issued
system.cpu.iq.FU_type_0::FloatMultAcc               0      0.00%     39.31% # Type of FU issued
system.cpu.iq.FU_type_0::FloatDiv                   0      0.00%     39.31% # Type of FU issued
system.cpu.iq.FU_type_0::FloatMisc                 47      0.00%     39.31% # Type of FU issued
system.cpu.iq.FU_type_0::FloatSqrt                  0      0.00%     39.31% # Type of FU issued
system.cpu.iq.FU_type_0::SimdAdd                    2      0.00%     39.31% # Type of FU issued
system.cpu.iq.FU_type_0::SimdAddAcc                 0      0.00%     39.31% # Type of FU issued
system.cpu.iq.FU_type_0::SimdAlu                   39      0.00%     39.31% # Type of FU issued
system.cpu.iq.FU_type_0::SimdCmp                  129      0.00%     39.31% # Type of FU issued
system.cpu.iq.FU_type_0::SimdCvt                    0      0.00%     39.31% # Type of FU issued
system.cpu.iq.FU_type_0::SimdMisc                  26      0.00%     39.31% # Type of FU issued
system.cpu.iq.FU_type_0::SimdMult                   0      0.00%     39.31% # Type of FU issued
system.cpu.iq.FU_type_0::SimdMultAcc                0      0.00%     39.31% # Type of FU issued
system.cpu.iq.FU_type_0::SimdShift                 24      0.00%     39.31% # Type of FU issued
system.cpu.iq.FU_type_0::SimdShiftAcc               0      0.00%     39.31% # Type of FU issued
system.cpu.iq.FU_type_0::SimdDiv                    0      0.00%     39.31% # Type of FU issued
system.cpu.iq.FU_type_0::SimdSqrt                   0      0.00%     39.31% # Type of FU issued
system.cpu.iq.FU_type_0::SimdFloatAdd               0      0.00%     39.31% # Type of FU issued
system.cpu.iq.FU_type_0::SimdFloatAlu               0      0.00%     39.31% # Type of FU issued
system.cpu.iq.FU_type_0::SimdFloatCmp               0      0.00%     39.31% # Type of FU issued
system.cpu.iq.FU_type_0::SimdFloatCvt               0      0.00%     39.31% # Type of FU issued
system.cpu.iq.FU_type_0::SimdFloatDiv               0      0.00%     39.31% # Type of FU issued
system.cpu.iq.FU_type_0::SimdFloatMisc              0      0.00%     39.31% # Type of FU issued
system.cpu.iq.FU_type_0::SimdFloatMult              0      0.00%     39.31% # Type of FU issued
system.cpu.iq.FU_type_0::SimdFloatMultAcc            0      0.00%     39.31% # Type of FU issued
system.cpu.iq.FU_type_0::SimdFloatSqrt              0      0.00%     39.31% # Type of FU issued
system.cpu.iq.FU_type_0::SimdReduceAdd              0      0.00%     39.31% # Type of FU issued
system.cpu.iq.FU_type_0::SimdReduceAlu              0      0.00%     39.31% # Type of FU issued
system.cpu.iq.FU_type_0::SimdReduceCmp              0      0.00%     39.31% # Type of FU issued
system.cpu.iq.FU_type_0::SimdFloatReduceAdd            0      0.00%     39.31% # Type of FU issued
system.cpu.iq.FU_type_0::SimdFloatReduceCmp            0      0.00%     39.31% # Type of FU issued
system.cpu.iq.FU_type_0::SimdAes                    0      0.00%     39.31% # Type of FU issued
system.cpu.iq.FU_type_0::SimdAesMix                 0      0.00%     39.31% # Type of FU issued
system.cpu.iq.FU_type_0::SimdSha1Hash               0      0.00%     39.31% # Type of FU issued
system.cpu.iq.FU_type_0::SimdSha1Hash2              0      0.00%     39.31% # Type of FU issued
system.cpu.iq.FU_type_0::SimdSha256Hash             0      0.00%     39.31% # Type of FU issued
system.cpu.iq.FU_type_0::SimdSha256Hash2            0      0.00%     39.31% # Type of FU issued
system.cpu.iq.FU_type_0::SimdShaSigma2              0      0.00%     39.31% # Type of FU issued
system.cpu.iq.FU_type_0::SimdShaSigma3              0      0.00%     39.31% # Type of FU issued
system.cpu.iq.FU_type_0::SimdPredAlu                0      0.00%     39.31% # Type of FU issued
system.cpu.iq.FU_type_0::MemRead            115277001     11.00%     50.30% # Type of FU issued
system.cpu.iq.FU_type_0::MemWrite           520855862     49.70%    100.00% # Type of FU issued
system.cpu.iq.FU_type_0::FloatMemRead               0      0.00%    100.00% # Type of FU issued
system.cpu.iq.FU_type_0::FloatMemWrite              0      0.00%    100.00% # Type of FU issued
system.cpu.iq.FU_type_0::IprAccess                  0      0.00%    100.00% # Type of FU issued
system.cpu.iq.FU_type_0::InstPrefetch               0      0.00%    100.00% # Type of FU issued
system.cpu.iq.FU_type_0::total             1048099227                       # Type of FU issued
system.cpu.iq.fp_alu_accesses                       0                       # Number of floating point alu accesses
system.cpu.iq.fp_inst_queue_reads                   0                       # Number of floating instruction queue reads
system.cpu.iq.fp_inst_queue_wakeup_accesses            0                       # Number of floating instruction queue wakeup accesses
system.cpu.iq.fp_inst_queue_writes                  0                       # Number of floating instruction queue writes
system.cpu.iq.fu_busy_cnt                    23631816                       # FU busy when requested
system.cpu.iq.fu_busy_rate                   0.022547                       # FU busy rate (busy events/executed inst)
system.cpu.iq.fu_full::No_OpClass                   0      0.00%      0.00% # attempts to use FU when none available
system.cpu.iq.fu_full::IntAlu                    1173      0.00%      0.00% # attempts to use FU when none available
system.cpu.iq.fu_full::IntMult                      8      0.00%      0.00% # attempts to use FU when none available
system.cpu.iq.fu_full::IntDiv                       0      0.00%      0.00% # attempts to use FU when none available
system.cpu.iq.fu_full::FloatAdd                     0      0.00%      0.00% # attempts to use FU when none available
system.cpu.iq.fu_full::FloatCmp                     0      0.00%      0.00% # attempts to use FU when none available
system.cpu.iq.fu_full::FloatCvt                     0      0.00%      0.00% # attempts to use FU when none available
system.cpu.iq.fu_full::FloatMult                    0      0.00%      0.00% # attempts to use FU when none available
system.cpu.iq.fu_full::FloatMultAcc                 0      0.00%      0.00% # attempts to use FU when none available
system.cpu.iq.fu_full::FloatDiv                     0      0.00%      0.00% # attempts to use FU when none available
system.cpu.iq.fu_full::FloatMisc                    3      0.00%      0.01% # attempts to use FU when none available
system.cpu.iq.fu_full::FloatSqrt                    0      0.00%      0.01% # attempts to use FU when none available
system.cpu.iq.fu_full::SimdAdd                      0      0.00%      0.01% # attempts to use FU when none available
system.cpu.iq.fu_full::SimdAddAcc                   0      0.00%      0.01% # attempts to use FU when none available
system.cpu.iq.fu_full::SimdAlu                      0      0.00%      0.01% # attempts to use FU when none available
system.cpu.iq.fu_full::SimdCmp                      0      0.00%      0.01% # attempts to use FU when none available
system.cpu.iq.fu_full::SimdCvt                      0      0.00%      0.01% # attempts to use FU when none available
system.cpu.iq.fu_full::SimdMisc                     0      0.00%      0.01% # attempts to use FU when none available
system.cpu.iq.fu_full::SimdMult                     0      0.00%      0.01% # attempts to use FU when none available
system.cpu.iq.fu_full::SimdMultAcc                  0      0.00%      0.01% # attempts to use FU when none available
system.cpu.iq.fu_full::SimdShift                    0      0.00%      0.01% # attempts to use FU when none available
system.cpu.iq.fu_full::SimdShiftAcc                 0      0.00%      0.01% # attempts to use FU when none available
system.cpu.iq.fu_full::SimdDiv                      0      0.00%      0.01% # attempts to use FU when none available
system.cpu.iq.fu_full::SimdSqrt                     0      0.00%      0.01% # attempts to use FU when none available
system.cpu.iq.fu_full::SimdFloatAdd                 0      0.00%      0.01% # attempts to use FU when none available
system.cpu.iq.fu_full::SimdFloatAlu                 0      0.00%      0.01% # attempts to use FU when none available
system.cpu.iq.fu_full::SimdFloatCmp                 0      0.00%      0.01% # attempts to use FU when none available
system.cpu.iq.fu_full::SimdFloatCvt                 0      0.00%      0.01% # attempts to use FU when none available
system.cpu.iq.fu_full::SimdFloatDiv                 0      0.00%      0.01% # attempts to use FU when none available
system.cpu.iq.fu_full::SimdFloatMisc                0      0.00%      0.01% # attempts to use FU when none available
system.cpu.iq.fu_full::SimdFloatMult                0      0.00%      0.01% # attempts to use FU when none available
system.cpu.iq.fu_full::SimdFloatMultAcc             0      0.00%      0.01% # attempts to use FU when none available
system.cpu.iq.fu_full::SimdFloatSqrt                0      0.00%      0.01% # attempts to use FU when none available
system.cpu.iq.fu_full::SimdReduceAdd                0      0.00%      0.01% # attempts to use FU when none available
system.cpu.iq.fu_full::SimdReduceAlu                0      0.00%      0.01% # attempts to use FU when none available
system.cpu.iq.fu_full::SimdReduceCmp                0      0.00%      0.01% # attempts to use FU when none available
system.cpu.iq.fu_full::SimdFloatReduceAdd            0      0.00%      0.01% # attempts to use FU when none available
system.cpu.iq.fu_full::SimdFloatReduceCmp            0      0.00%      0.01% # attempts to use FU when none available
system.cpu.iq.fu_full::SimdAes                      0      0.00%      0.01% # attempts to use FU when none available
system.cpu.iq.fu_full::SimdAesMix                   0      0.00%      0.01% # attempts to use FU when none available
system.cpu.iq.fu_full::SimdSha1Hash                 0      0.00%      0.01% # attempts to use FU when none available
system.cpu.iq.fu_full::SimdSha1Hash2                0      0.00%      0.01% # attempts to use FU when none available
system.cpu.iq.fu_full::SimdSha256Hash               0      0.00%      0.01% # attempts to use FU when none available
system.cpu.iq.fu_full::SimdSha256Hash2              0      0.00%      0.01% # attempts to use FU when none available
system.cpu.iq.fu_full::SimdShaSigma2                0      0.00%      0.01% # attempts to use FU when none available
system.cpu.iq.fu_full::SimdShaSigma3                0      0.00%      0.01% # attempts to use FU when none available
system.cpu.iq.fu_full::SimdPredAlu                  0      0.00%      0.01% # attempts to use FU when none available
system.cpu.iq.fu_full::MemRead                5065680     21.44%     21.44% # attempts to use FU when none available
system.cpu.iq.fu_full::MemWrite              18564952     78.56%    100.00% # attempts to use FU when none available
system.cpu.iq.fu_full::FloatMemRead                 0      0.00%    100.00% # attempts to use FU when none available
system.cpu.iq.fu_full::FloatMemWrite                0      0.00%    100.00% # attempts to use FU when none available
system.cpu.iq.fu_full::IprAccess                    0      0.00%    100.00% # attempts to use FU when none available
system.cpu.iq.fu_full::InstPrefetch                 0      0.00%    100.00% # attempts to use FU when none available
system.cpu.iq.int_alu_accesses              626088040                       # Number of integer alu accesses
system.cpu.iq.int_inst_queue_reads         3090284347                       # Number of integer instruction queue reads
system.cpu.iq.int_inst_queue_wakeup_accesses    573902621                       # Number of integer instruction queue wakeup accesses
system.cpu.iq.int_inst_queue_writes         662943473                       # Number of integer instruction queue writes
system.cpu.iq.iqInstsAdded                 1029507014                       # Number of instructions added to the IQ (excludes non-spec)
system.cpu.iq.iqInstsIssued                1048099227                       # Number of instructions issued
system.cpu.iq.iqNonSpecInstsAdded                1676                       # Number of non-speculative instructions added to the IQ
system.cpu.iq.iqSquashedInstsExamined        86522908                       # Number of squashed instructions iterated over during squash; mainly for profiling
system.cpu.iq.iqSquashedInstsIssued            333907                       # Number of squashed instructions issued
system.cpu.iq.iqSquashedNonSpecRemoved            331                       # Number of squashed non-spec instructions that were removed
system.cpu.iq.iqSquashedOperandsExamined    125154892                       # Number of squashed operands that are examined and possibly removed from graph
system.cpu.iq.issued_per_cycle::samples    1842946799                       # Number of insts issued each cycle
system.cpu.iq.issued_per_cycle::mean         0.568708                       # Number of insts issued each cycle
system.cpu.iq.issued_per_cycle::stdev        1.338098                       # Number of insts issued each cycle
system.cpu.iq.issued_per_cycle::underflows            0      0.00%      0.00% # Number of insts issued each cycle
system.cpu.iq.issued_per_cycle::0          1471784066     79.86%     79.86% # Number of insts issued each cycle
system.cpu.iq.issued_per_cycle::1           100074416      5.43%     85.29% # Number of insts issued each cycle
system.cpu.iq.issued_per_cycle::2            70791666      3.84%     89.13% # Number of insts issued each cycle
system.cpu.iq.issued_per_cycle::3            81205794      4.41%     93.54% # Number of insts issued each cycle
system.cpu.iq.issued_per_cycle::4            68020337      3.69%     97.23% # Number of insts issued each cycle
system.cpu.iq.issued_per_cycle::5            27730049      1.50%     98.73% # Number of insts issued each cycle
system.cpu.iq.issued_per_cycle::6            12940268      0.70%     99.44% # Number of insts issued each cycle
system.cpu.iq.issued_per_cycle::7             8750728      0.47%     99.91% # Number of insts issued each cycle
system.cpu.iq.issued_per_cycle::8             1649475      0.09%    100.00% # Number of insts issued each cycle
system.cpu.iq.issued_per_cycle::overflows            0      0.00%    100.00% # Number of insts issued each cycle
system.cpu.iq.issued_per_cycle::min_value            0                       # Number of insts issued each cycle
system.cpu.iq.issued_per_cycle::max_value            8                       # Number of insts issued each cycle
system.cpu.iq.issued_per_cycle::total      1842946799                       # Number of insts issued each cycle
system.cpu.iq.rate                           0.568677                       # Inst issue rate
system.cpu.iq.vec_alu_accesses              445642947                       # Number of vector alu accesses
system.cpu.iq.vec_inst_queue_reads          872826627                       # Number of vector instruction queue reads
system.cpu.iq.vec_inst_queue_wakeup_accesses    408339839                       # Number of vector instruction queue wakeup accesses
system.cpu.iq.vec_inst_queue_writes         453091142                       # Number of vector instruction queue writes
system.cpu.memDep0.conflictingLoads          16750319                       # Number of conflicting loads.
system.cpu.memDep0.conflictingStores         23784771                       # Number of conflicting stores.
system.cpu.memDep0.insertedLoads             76910671                       # Number of loads inserted to the mem dependence unit.
system.cpu.memDep0.insertedStores           528113052                       # Number of stores inserted to the mem dependence unit.
system.cpu.misc_regfile_reads              4689118244                       # number of misc regfile reads
system.cpu.misc_regfile_writes                     52                       # number of misc regfile writes
system.cpu.numCycles                       1843049787                       # number of cpu cycles simulated
system.cpu.numWorkItemsCompleted                    0                       # number of work items this cpu completed
system.cpu.numWorkItemsStarted                      0                       # number of work items this cpu started
system.cpu.pred_regfile_reads                     141                       # number of predicate regfile reads
system.cpu.pred_regfile_writes                     50                       # number of predicate regfile writes
system.cpu.timesIdled                             891                       # Number of times that the entire CPU went into an idle state and unscheduled itself
system.cpu.vec_regfile_reads                427183495                       # number of vector regfile reads
system.cpu.vec_regfile_writes                     314                       # number of vector regfile writes
system.cpu.workload.numSyscalls                  1304                       # Number of system calls
system.l2.MSHRs.leapFrogMisses                      0                       # number of false blocks from MSHR
system.membus.snoop_filter.hit_multi_requests            0                       # Number of requests hitting in the snoop filter with multiple (>1) holders of the requested data.
system.membus.snoop_filter.hit_multi_snoops            0                       # Number of snoops hitting in the snoop filter with multiple (>1) holders of the requested data.
system.membus.snoop_filter.hit_single_requests     61708911                       # Number of requests hitting in the snoop filter with a single holder of the requested data.
system.membus.snoop_filter.hit_single_snoops            0                       # Number of snoops hitting in the snoop filter with a single holder of the requested data.
system.membus.snoop_filter.tot_requests     121923828                       # Total number of requests made to the snoop filter.
system.membus.snoop_filter.tot_snoops               0                       # Total number of snoops made to the snoop filter.
system.tol2bus.snoop_filter.hit_multi_requests            1                       # Number of requests hitting in the snoop filter with multiple (>1) holders of the requested data.
system.tol2bus.snoop_filter.hit_multi_snoops            0                       # Number of snoops hitting in the snoop filter with multiple (>1) holders of the requested data.
system.tol2bus.snoop_filter.hit_single_requests     63669819                       # Number of requests hitting in the snoop filter with a single holder of the requested data.
system.tol2bus.snoop_filter.hit_single_snoops         9070                       # Number of snoops hitting in the snoop filter with a single holder of the requested data.
system.tol2bus.snoop_filter.tot_requests    121994124                       # Total number of requests made to the snoop filter.
system.tol2bus.snoop_filter.tot_snoops           9070                       # Total number of snoops made to the snoop filter.
system.clk_domain.clock                          1000                       # Clock period in ticks
system.cpu.branchPred.lookups                99774433                       # Number of BP lookups
system.cpu.branchPred.condPredicted          74683146                       # Number of conditional branches predicted
system.cpu.branchPred.condIncorrect           1003215                       # Number of conditional branches incorrect
system.cpu.branchPred.BTBLookups             68100862                       # Number of BTB lookups
system.cpu.branchPred.BTBHits                68099636                       # Number of BTB hits
system.cpu.branchPred.BTBHitPct             99.998200                       # BTB Hit Percentage
system.cpu.branchPred.RASUsed                12136692                       # Number of times the RAS was used to get a target.
system.cpu.branchPred.RASIncorrect                 10                       # Number of incorrect RAS predictions.
system.cpu.branchPred.indirectLookups            4699                       # Number of indirect predictor lookups.
system.cpu.branchPred.indirectHits               4482                       # Number of indirect target hits.
system.cpu.branchPred.indirectMisses              217                       # Number of indirect misses.
system.cpu.branchPred.indirectMispredicted           80                       # Number of mispredicted indirect branches.
system.cpu.commit.commitSquashedInsts        78490021                       # The number of squashed insts skipped by commit
system.cpu.commit.commitNonSpecStalls            1345                       # The number of times commit has been forced to stall to communicate backwards
system.cpu.commit.branchMispredicts           1002843                       # The number of times a branch was mispredicted
system.cpu.commit.numCommittedDist::samples   1832211645                       # Number of insts commited each cycle
system.cpu.commit.numCommittedDist::mean     0.514699                       # Number of insts commited each cycle
system.cpu.commit.numCommittedDist::stdev     1.454270                       # Number of insts commited each cycle
system.cpu.commit.numCommittedDist::underflows            0      0.00%      0.00% # Number of insts commited each cycle
system.cpu.commit.numCommittedDist::0      1534452894     83.75%     83.75% # Number of insts commited each cycle
system.cpu.commit.numCommittedDist::1        83380446      4.55%     88.30% # Number of insts commited each cycle
system.cpu.commit.numCommittedDist::2        63494392      3.47%     91.76% # Number of insts commited each cycle
system.cpu.commit.numCommittedDist::3        44081644      2.41%     94.17% # Number of insts commited each cycle
system.cpu.commit.numCommittedDist::4        28190503      1.54%     95.71% # Number of insts commited each cycle
system.cpu.commit.numCommittedDist::5        43379774      2.37%     98.08% # Number of insts commited each cycle
system.cpu.commit.numCommittedDist::6         1116987      0.06%     98.14% # Number of insts commited each cycle
system.cpu.commit.numCommittedDist::7         8858722      0.48%     98.62% # Number of insts commited each cycle
system.cpu.commit.numCommittedDist::8        25256283      1.38%    100.00% # Number of insts commited each cycle
system.cpu.commit.numCommittedDist::overflows            0      0.00%    100.00% # Number of insts commited each cycle
system.cpu.commit.numCommittedDist::min_value            0                       # Number of insts commited each cycle
system.cpu.commit.numCommittedDist::max_value            8                       # Number of insts commited each cycle
system.cpu.commit.numCommittedDist::total   1832211645                       # Number of insts commited each cycle
system.cpu.commit.instsCommitted            500052519                       # Number of instructions committed
system.cpu.commit.opsCommitted              943038284                       # Number of ops (including micro ops) committed
system.cpu.commit.memRefs                   559018495                       # Number of memory references committed
system.cpu.commit.loads                      68314858                       # Number of loads committed
system.cpu.commit.amos                             14                       # Number of atomic instructions committed
system.cpu.commit.membars                          25                       # Number of memory barriers committed
system.cpu.commit.branches                   84047100                       # Number of branches committed
system.cpu.commit.vector                    401280546                       # Number of committed Vector instructions.
system.cpu.commit.floating                          0                       # Number of committed floating point instructions.
system.cpu.commit.integer                   890426263                       # Number of committed integer instructions.
system.cpu.commit.functionCalls              10489957                       # Number of function calls committed.
system.cpu.commit.committedInstType_0::No_OpClass           35      0.00%      0.00% # Class of committed instruction
system.cpu.commit.committedInstType_0::IntAlu    384019467     40.72%     40.72% # Class of committed instruction
system.cpu.commit.committedInstType_0::IntMult           59      0.00%     40.72% # Class of committed instruction
system.cpu.commit.committedInstType_0::IntDiv           10      0.00%     40.72% # Class of committed instruction
system.cpu.commit.committedInstType_0::FloatAdd            0      0.00%     40.72% # Class of committed instruction
system.cpu.commit.committedInstType_0::FloatCmp            2      0.00%     40.72% # Class of committed instruction
system.cpu.commit.committedInstType_0::FloatCvt            0      0.00%     40.72% # Class of committed instruction
system.cpu.commit.committedInstType_0::FloatMult            0      0.00%     40.72% # Class of committed instruction
system.cpu.commit.committedInstType_0::FloatMultAcc            0      0.00%     40.72% # Class of committed instruction
system.cpu.commit.committedInstType_0::FloatDiv            0      0.00%     40.72% # Class of committed instruction
system.cpu.commit.committedInstType_0::FloatMisc           36      0.00%     40.72% # Class of committed instruction
system.cpu.commit.committedInstType_0::FloatSqrt            0      0.00%     40.72% # Class of committed instruction
system.cpu.commit.committedInstType_0::SimdAdd            1      0.00%     40.72% # Class of committed instruction
system.cpu.commit.committedInstType_0::SimdAddAcc            0      0.00%     40.72% # Class of committed instruction
system.cpu.commit.committedInstType_0::SimdAlu           32      0.00%     40.72% # Class of committed instruction
system.cpu.commit.committedInstType_0::SimdCmp          103      0.00%     40.72% # Class of committed instruction
system.cpu.commit.committedInstType_0::SimdCvt            0      0.00%     40.72% # Class of committed instruction
system.cpu.commit.committedInstType_0::SimdMisc           24      0.00%     40.72% # Class of committed instruction
system.cpu.commit.committedInstType_0::SimdMult            0      0.00%     40.72% # Class of committed instruction
system.cpu.commit.committedInstType_0::SimdMultAcc            0      0.00%     40.72% # Class of committed instruction
system.cpu.commit.committedInstType_0::SimdShift           20      0.00%     40.72% # Class of committed instruction
system.cpu.commit.committedInstType_0::SimdShiftAcc            0      0.00%     40.72% # Class of committed instruction
system.cpu.commit.committedInstType_0::SimdDiv            0      0.00%     40.72% # Class of committed instruction
system.cpu.commit.committedInstType_0::SimdSqrt            0      0.00%     40.72% # Class of committed instruction
system.cpu.commit.committedInstType_0::SimdFloatAdd            0      0.00%     40.72% # Class of committed instruction
system.cpu.commit.committedInstType_0::SimdFloatAlu            0      0.00%     40.72% # Class of committed instruction
system.cpu.commit.committedInstType_0::SimdFloatCmp            0      0.00%     40.72% # Class of committed instruction
system.cpu.commit.committedInstType_0::SimdFloatCvt            0      0.00%     40.72% # Class of committed instruction
system.cpu.commit.committedInstType_0::SimdFloatDiv            0      0.00%     40.72% # Class of committed instruction
system.cpu.commit.committedInstType_0::SimdFloatMisc            0      0.00%     40.72% # Class of committed instruction
system.cpu.commit.committedInstType_0::SimdFloatMult            0      0.00%     40.72% # Class of committed instruction
system.cpu.commit.committedInstType_0::SimdFloatMultAcc            0      0.00%     40.72% # Class of committed instruction
system.cpu.commit.committedInstType_0::SimdFloatSqrt            0      0.00%     40.72% # Class of committed instruction
system.cpu.commit.committedInstType_0::SimdReduceAdd            0      0.00%     40.72% # Class of committed instruction
system.cpu.commit.committedInstType_0::SimdReduceAlu            0      0.00%     40.72% # Class of committed instruction
system.cpu.commit.committedInstType_0::SimdReduceCmp            0      0.00%     40.72% # Class of committed instruction
system.cpu.commit.committedInstType_0::SimdFloatReduceAdd            0      0.00%     40.72% # Class of committed instruction
system.cpu.commit.committedInstType_0::SimdFloatReduceCmp            0      0.00%     40.72% # Class of committed instruction
system.cpu.commit.committedInstType_0::SimdAes            0      0.00%     40.72% # Class of committed instruction
system.cpu.commit.committedInstType_0::SimdAesMix            0      0.00%     40.72% # Class of committed instruction
system.cpu.commit.committedInstType_0::SimdSha1Hash            0      0.00%     40.72% # Class of committed instruction
system.cpu.commit.committedInstType_0::SimdSha1Hash2            0      0.00%     40.72% # Class of committed instruction
system.cpu.commit.committedInstType_0::SimdSha256Hash            0      0.00%     40.72% # Class of committed instruction
system.cpu.commit.committedInstType_0::SimdSha256Hash2            0      0.00%     40.72% # Class of committed instruction
system.cpu.commit.committedInstType_0::SimdShaSigma2            0      0.00%     40.72% # Class of committed instruction
system.cpu.commit.committedInstType_0::SimdShaSigma3            0      0.00%     40.72% # Class of committed instruction
system.cpu.commit.committedInstType_0::SimdPredAlu            0      0.00%     40.72% # Class of committed instruction
system.cpu.commit.committedInstType_0::MemRead     68314858      7.24%     47.97% # Class of committed instruction
system.cpu.commit.committedInstType_0::MemWrite    490703637     52.03%    100.00% # Class of committed instruction
system.cpu.commit.committedInstType_0::FloatMemRead            0      0.00%    100.00% # Class of committed instruction
system.cpu.commit.committedInstType_0::FloatMemWrite            0      0.00%    100.00% # Class of committed instruction
system.cpu.commit.committedInstType_0::IprAccess            0      0.00%    100.00% # Class of committed instruction
system.cpu.commit.committedInstType_0::InstPrefetch            0      0.00%    100.00% # Class of committed instruction
system.cpu.commit.committedInstType_0::total    943038284                       # Class of committed instruction
system.cpu.commit.commitEligibleSamples      25256283                       # number cycles where commit BW limit reached
system.cpu.dcache.demand_hits::.cpu.data    131794703                       # number of demand (read+write) hits
system.cpu.dcache.demand_hits::total        131794703                       # number of demand (read+write) hits
system.cpu.dcache.overall_hits::.cpu.data    131794703                       # number of overall hits
system.cpu.dcache.overall_hits::total       131794703                       # number of overall hits
system.cpu.dcache.demand_misses::.cpu.data    418313555                       # number of demand (read+write) misses
system.cpu.dcache.demand_misses::total      418313555                       # number of demand (read+write) misses
system.cpu.dcache.overall_misses::.cpu.data    418313555                       # number of overall misses
system.cpu.dcache.overall_misses::total     418313555                       # number of overall misses
system.cpu.dcache.demand_miss_latency::.cpu.data 12453427610166                       # number of demand (read+write) miss cycles
system.cpu.dcache.demand_miss_latency::total 12453427610166                       # number of demand (read+write) miss cycles
system.cpu.dcache.overall_miss_latency::.cpu.data 12453427610166                       # number of overall miss cycles
system.cpu.dcache.overall_miss_latency::total 12453427610166                       # number of overall miss cycles
system.cpu.dcache.demand_accesses::.cpu.data    550108258                       # number of demand (read+write) accesses
system.cpu.dcache.demand_accesses::total    550108258                       # number of demand (read+write) accesses
system.cpu.dcache.overall_accesses::.cpu.data    550108258                       # number of overall (read+write) accesses
system.cpu.dcache.overall_accesses::total    550108258                       # number of overall (read+write) accesses
system.cpu.dcache.demand_miss_rate::.cpu.data     0.760420                       # miss rate for demand accesses
system.cpu.dcache.demand_miss_rate::total     0.760420                       # miss rate for demand accesses
system.cpu.dcache.overall_miss_rate::.cpu.data     0.760420                       # miss rate for overall accesses
system.cpu.dcache.overall_miss_rate::total     0.760420                       # miss rate for overall accesses
system.cpu.dcache.demand_avg_miss_latency::.cpu.data 29770.557184                       # average overall miss latency
system.cpu.dcache.demand_avg_miss_latency::total 29770.557184                       # average overall miss latency
system.cpu.dcache.overall_avg_miss_latency::.cpu.data 29770.557184                       # average overall miss latency
system.cpu.dcache.overall_avg_miss_latency::total 29770.557184                       # average overall miss latency
system.cpu.dcache.blocked_cycles::no_mshrs    535449715                       # number of cycles access was blocked
system.cpu.dcache.blocked_cycles::no_targets            0                       # number of cycles access was blocked
system.cpu.dcache.blocked::no_mshrs          26828846                       # number of cycles access was blocked
system.cpu.dcache.blocked::no_targets               0                       # number of cycles access was blocked
system.cpu.dcache.avg_blocked_cycles::no_mshrs    19.957985                       # average number of cycles each access was blocked
system.cpu.dcache.avg_blocked_cycles::no_targets          nan                       # average number of cycles each access was blocked
system.cpu.dcache.ghost_timestamp_misses            0                       # number of times timestamp policy causes a block to be inaccessible
system.cpu.dcache.ghost_commits               4541840                       # number of cache lines moved from ghost to main
system.cpu.dcache.same_leapfrogs                    1                       # number of times leapfrogging occurs with a shared MSHR request
system.cpu.dcache.writebacks::.writebacks     62846843                       # number of writebacks
system.cpu.dcache.writebacks::total          62846843                       # number of writebacks
system.cpu.dcache.demand_mshr_hits::.cpu.data    354644022                       # number of demand (read+write) MSHR hits
system.cpu.dcache.demand_mshr_hits::total    354644022                       # number of demand (read+write) MSHR hits
system.cpu.dcache.overall_mshr_hits::.cpu.data    354644022                       # number of overall MSHR hits
system.cpu.dcache.overall_mshr_hits::total    354644022                       # number of overall MSHR hits
system.cpu.dcache.demand_mshr_misses::.cpu.data     63669533                       # number of demand (read+write) MSHR misses
system.cpu.dcache.demand_mshr_misses::total     63669533                       # number of demand (read+write) MSHR misses
system.cpu.dcache.overall_mshr_misses::.cpu.data     63669533                       # number of overall MSHR misses
system.cpu.dcache.overall_mshr_misses::total     63669533                       # number of overall MSHR misses
system.cpu.dcache.demand_mshr_miss_latency::.cpu.data 2051227800993                       # number of demand (read+write) MSHR miss cycles
system.cpu.dcache.demand_mshr_miss_latency::total 2051227800993                       # number of demand (read+write) MSHR miss cycles
system.cpu.dcache.overall_mshr_miss_latency::.cpu.data 2051227800993                       # number of overall MSHR miss cycles
system.cpu.dcache.overall_mshr_miss_latency::total 2051227800993                       # number of overall MSHR miss cycles
system.cpu.dcache.demand_mshr_miss_rate::.cpu.data     0.115740                       # mshr miss rate for demand accesses
system.cpu.dcache.demand_mshr_miss_rate::total     0.115740                       # mshr miss rate for demand accesses
system.cpu.dcache.overall_mshr_miss_rate::.cpu.data     0.115740                       # mshr miss rate for overall accesses
system.cpu.dcache.overall_mshr_miss_rate::total     0.115740                       # mshr miss rate for overall accesses
system.cpu.dcache.demand_avg_mshr_miss_latency::.cpu.data 32216.787282                       # average overall mshr miss latency
system.cpu.dcache.demand_avg_mshr_miss_latency::total 32216.787282                       # average overall mshr miss latency
system.cpu.dcache.overall_avg_mshr_miss_latency::.cpu.data 32216.787282                       # average overall mshr miss latency
system.cpu.dcache.overall_avg_mshr_miss_latency::total 32216.787282                       # average overall mshr miss latency
system.cpu.dcache.replacements               58305002                       # number of replacements
system.cpu.dcache.ReadReq_hits::.cpu.data     53802214                       # number of ReadReq hits
system.cpu.dcache.ReadReq_hits::total        53802214                       # number of ReadReq hits
system.cpu.dcache.ReadReq_misses::.cpu.data      5602438                       # number of ReadReq misses
system.cpu.dcache.ReadReq_misses::total       5602438                       # number of ReadReq misses
system.cpu.dcache.ReadReq_miss_latency::.cpu.data 162569938500                       # number of ReadReq miss cycles
system.cpu.dcache.ReadReq_miss_latency::total 162569938500                       # number of ReadReq miss cycles
system.cpu.dcache.ReadReq_accesses::.cpu.data     59404652                       # number of ReadReq accesses(hits+misses)
system.cpu.dcache.ReadReq_accesses::total     59404652                       # number of ReadReq accesses(hits+misses)
system.cpu.dcache.ReadReq_miss_rate::.cpu.data     0.094310                       # miss rate for ReadReq accesses
system.cpu.dcache.ReadReq_miss_rate::total     0.094310                       # miss rate for ReadReq accesses
system.cpu.dcache.ReadReq_avg_miss_latency::.cpu.data 29017.713092                       # average ReadReq miss latency
system.cpu.dcache.ReadReq_avg_miss_latency::total 29017.713092                       # average ReadReq miss latency
system.cpu.dcache.ReadReq_mshr_hits::.cpu.data        81942                       # number of ReadReq MSHR hits
system.cpu.dcache.ReadReq_mshr_hits::total        81942                       # number of ReadReq MSHR hits
system.cpu.dcache.ReadReq_mshr_misses::.cpu.data      5520496                       # number of ReadReq MSHR misses
system.cpu.dcache.ReadReq_mshr_misses::total      5520496                       # number of ReadReq MSHR misses
system.cpu.dcache.ReadReq_mshr_miss_latency::.cpu.data 156293959500                       # number of ReadReq MSHR miss cycles
system.cpu.dcache.ReadReq_mshr_miss_latency::total 156293959500                       # number of ReadReq MSHR miss cycles
system.cpu.dcache.ReadReq_mshr_miss_rate::.cpu.data     0.092930                       # mshr miss rate for ReadReq accesses
system.cpu.dcache.ReadReq_mshr_miss_rate::total     0.092930                       # mshr miss rate for ReadReq accesses
system.cpu.dcache.ReadReq_avg_mshr_miss_latency::.cpu.data 28311.579159                       # average ReadReq mshr miss latency
system.cpu.dcache.ReadReq_avg_mshr_miss_latency::total 28311.579159                       # average ReadReq mshr miss latency
system.cpu.dcache.WriteReq_hits::.cpu.data     77992489                       # number of WriteReq hits
system.cpu.dcache.WriteReq_hits::total       77992489                       # number of WriteReq hits
system.cpu.dcache.WriteReq_misses::.cpu.data    412711108                       # number of WriteReq misses
system.cpu.dcache.WriteReq_misses::total    412711108                       # number of WriteReq misses
system.cpu.dcache.WriteReq_miss_latency::.cpu.data 12290857384667                       # number of WriteReq miss cycles
system.cpu.dcache.WriteReq_miss_latency::total 12290857384667                       # number of WriteReq miss cycles
system.cpu.dcache.WriteReq_accesses::.cpu.data    490703597                       # number of WriteReq accesses(hits+misses)
system.cpu.dcache.WriteReq_accesses::total    490703597                       # number of WriteReq accesses(hits+misses)
system.cpu.dcache.WriteReq_miss_rate::.cpu.data     0.841060                       # miss rate for WriteReq accesses
system.cpu.dcache.WriteReq_miss_rate::total     0.841060                       # miss rate for WriteReq accesses
system.cpu.dcache.WriteReq_avg_miss_latency::.cpu.data 29780.776787                       # average WriteReq miss latency
system.cpu.dcache.WriteReq_avg_miss_latency::total 29780.776787                       # average WriteReq miss latency
system.cpu.dcache.WriteReq_mshr_hits::.cpu.data    354562080                       # number of WriteReq MSHR hits
system.cpu.dcache.WriteReq_mshr_hits::total    354562080                       # number of WriteReq MSHR hits
system.cpu.dcache.WriteReq_mshr_misses::.cpu.data     58149028                       # number of WriteReq MSHR misses
system.cpu.dcache.WriteReq_mshr_misses::total     58149028                       # number of WriteReq MSHR misses
system.cpu.dcache.WriteReq_mshr_miss_latency::.cpu.data 1894933563494                       # number of WriteReq MSHR miss cycles
system.cpu.dcache.WriteReq_mshr_miss_latency::total 1894933563494                       # number of WriteReq MSHR miss cycles
system.cpu.dcache.WriteReq_mshr_miss_rate::.cpu.data     0.118501                       # mshr miss rate for WriteReq accesses
system.cpu.dcache.WriteReq_mshr_miss_rate::total     0.118501                       # mshr miss rate for WriteReq accesses
system.cpu.dcache.WriteReq_avg_mshr_miss_latency::.cpu.data 32587.536347                       # average WriteReq mshr miss latency
system.cpu.dcache.WriteReq_avg_mshr_miss_latency::total 32587.536347                       # average WriteReq mshr miss latency
system.cpu.dcache.WriteLineReq_misses::.cpu.data            9                       # number of WriteLineReq misses
system.cpu.dcache.WriteLineReq_misses::total            9                       # number of WriteLineReq misses
system.cpu.dcache.WriteLineReq_miss_latency::.cpu.data       286999                       # number of WriteLineReq miss cycles
system.cpu.dcache.WriteLineReq_miss_latency::total       286999                       # number of WriteLineReq miss cycles
system.cpu.dcache.WriteLineReq_accesses::.cpu.data            9                       # number of WriteLineReq accesses(hits+misses)
system.cpu.dcache.WriteLineReq_accesses::total            9                       # number of WriteLineReq accesses(hits+misses)
system.cpu.dcache.WriteLineReq_miss_rate::.cpu.data            1                       # miss rate for WriteLineReq accesses
system.cpu.dcache.WriteLineReq_miss_rate::total            1                       # miss rate for WriteLineReq accesses
system.cpu.dcache.WriteLineReq_avg_miss_latency::.cpu.data 31888.777778                       # average WriteLineReq miss latency
system.cpu.dcache.WriteLineReq_avg_miss_latency::total 31888.777778                       # average WriteLineReq miss latency
system.cpu.dcache.WriteLineReq_mshr_misses::.cpu.data            9                       # number of WriteLineReq MSHR misses
system.cpu.dcache.WriteLineReq_mshr_misses::total            9                       # number of WriteLineReq MSHR misses
system.cpu.dcache.WriteLineReq_mshr_miss_latency::.cpu.data       277999                       # number of WriteLineReq MSHR miss cycles
system.cpu.dcache.WriteLineReq_mshr_miss_latency::total       277999                       # number of WriteLineReq MSHR miss cycles
system.cpu.dcache.WriteLineReq_mshr_miss_rate::.cpu.data            1                       # mshr miss rate for WriteLineReq accesses
system.cpu.dcache.WriteLineReq_mshr_miss_rate::total            1                       # mshr miss rate for WriteLineReq accesses
system.cpu.dcache.WriteLineReq_avg_mshr_miss_latency::.cpu.data 30888.777778                       # average WriteLineReq mshr miss latency
system.cpu.dcache.WriteLineReq_avg_mshr_miss_latency::total 30888.777778                       # average WriteLineReq mshr miss latency
system.cpu.dcache.LoadLockedReq_hits::.cpu.data            5                       # number of LoadLockedReq hits
system.cpu.dcache.LoadLockedReq_hits::total            5                       # number of LoadLockedReq hits
system.cpu.dcache.LoadLockedReq_misses::.cpu.data            2                       # number of LoadLockedReq misses
system.cpu.dcache.LoadLockedReq_misses::total            2                       # number of LoadLockedReq misses
system.cpu.dcache.LoadLockedReq_miss_latency::.cpu.data       109500                       # number of LoadLockedReq miss cycles
system.cpu.dcache.LoadLockedReq_miss_latency::total       109500                       # number of LoadLockedReq miss cycles
system.cpu.dcache.LoadLockedReq_accesses::.cpu.data            7                       # number of LoadLockedReq accesses(hits+misses)
system.cpu.dcache.LoadLockedReq_accesses::total            7                       # number of LoadLockedReq accesses(hits+misses)
system.cpu.dcache.LoadLockedReq_miss_rate::.cpu.data     0.285714                       # miss rate for LoadLockedReq accesses
system.cpu.dcache.LoadLockedReq_miss_rate::total     0.285714                       # miss rate for LoadLockedReq accesses
system.cpu.dcache.LoadLockedReq_avg_miss_latency::.cpu.data        54750                       # average LoadLockedReq miss latency
system.cpu.dcache.LoadLockedReq_avg_miss_latency::total        54750                       # average LoadLockedReq miss latency
system.cpu.dcache.LoadLockedReq_mshr_hits::.cpu.data            1                       # number of LoadLockedReq MSHR hits
system.cpu.dcache.LoadLockedReq_mshr_hits::total            1                       # number of LoadLockedReq MSHR hits
system.cpu.dcache.LoadLockedReq_mshr_misses::.cpu.data            1                       # number of LoadLockedReq MSHR misses
system.cpu.dcache.LoadLockedReq_mshr_misses::total            1                       # number of LoadLockedReq MSHR misses
system.cpu.dcache.LoadLockedReq_mshr_miss_latency::.cpu.data        98500                       # number of LoadLockedReq MSHR miss cycles
system.cpu.dcache.LoadLockedReq_mshr_miss_latency::total        98500                       # number of LoadLockedReq MSHR miss cycles
system.cpu.dcache.LoadLockedReq_mshr_miss_rate::.cpu.data     0.142857                       # mshr miss rate for LoadLockedReq accesses
system.cpu.dcache.LoadLockedReq_mshr_miss_rate::total     0.142857                       # mshr miss rate for LoadLockedReq accesses
system.cpu.dcache.LoadLockedReq_avg_mshr_miss_latency::.cpu.data        98500                       # average LoadLockedReq mshr miss latency
system.cpu.dcache.LoadLockedReq_avg_mshr_miss_latency::total        98500                       # average LoadLockedReq mshr miss latency
system.cpu.dcache.StoreCondReq_hits::.cpu.data            4                       # number of StoreCondReq hits
system.cpu.dcache.StoreCondReq_hits::total            4                       # number of StoreCondReq hits
system.cpu.dcache.StoreCondReq_misses::.cpu.data            1                       # number of StoreCondReq misses
system.cpu.dcache.StoreCondReq_misses::total            1                       # number of StoreCondReq misses
system.cpu.dcache.StoreCondReq_miss_latency::.cpu.data        31000                       # number of StoreCondReq miss cycles
system.cpu.dcache.StoreCondReq_miss_latency::total        31000                       # number of StoreCondReq miss cycles
system.cpu.dcache.StoreCondReq_accesses::.cpu.data            5                       # number of StoreCondReq accesses(hits+misses)
system.cpu.dcache.StoreCondReq_accesses::total            5                       # number of StoreCondReq accesses(hits+misses)
system.cpu.dcache.StoreCondReq_miss_rate::.cpu.data     0.200000                       # miss rate for StoreCondReq accesses
system.cpu.dcache.StoreCondReq_miss_rate::total     0.200000                       # miss rate for StoreCondReq accesses
system.cpu.dcache.StoreCondReq_avg_miss_latency::.cpu.data        31000                       # average StoreCondReq miss latency
system.cpu.dcache.StoreCondReq_avg_miss_latency::total        31000                       # average StoreCondReq miss latency
system.cpu.dcache.StoreCondReq_mshr_misses::.cpu.data            1                       # number of StoreCondReq MSHR misses
system.cpu.dcache.StoreCondReq_mshr_misses::total            1                       # number of StoreCondReq MSHR misses
system.cpu.dcache.StoreCondReq_mshr_miss_latency::.cpu.data        30000                       # number of StoreCondReq MSHR miss cycles
system.cpu.dcache.StoreCondReq_mshr_miss_latency::total        30000                       # number of StoreCondReq MSHR miss cycles
system.cpu.dcache.StoreCondReq_mshr_miss_rate::.cpu.data     0.200000                       # mshr miss rate for StoreCondReq accesses
system.cpu.dcache.StoreCondReq_mshr_miss_rate::total     0.200000                       # mshr miss rate for StoreCondReq accesses
system.cpu.dcache.StoreCondReq_avg_mshr_miss_latency::.cpu.data        30000                       # average StoreCondReq mshr miss latency
system.cpu.dcache.StoreCondReq_avg_mshr_miss_latency::total        30000                       # average StoreCondReq mshr miss latency
system.cpu.dcache.SwapReq_hits::.cpu.data           11                       # number of SwapReq hits
system.cpu.dcache.SwapReq_hits::total              11                       # number of SwapReq hits
system.cpu.dcache.SwapReq_misses::.cpu.data            3                       # number of SwapReq misses
system.cpu.dcache.SwapReq_misses::total             3                       # number of SwapReq misses
system.cpu.dcache.SwapReq_miss_latency::.cpu.data        76500                       # number of SwapReq miss cycles
system.cpu.dcache.SwapReq_miss_latency::total        76500                       # number of SwapReq miss cycles
system.cpu.dcache.SwapReq_accesses::.cpu.data           14                       # number of SwapReq accesses(hits+misses)
system.cpu.dcache.SwapReq_accesses::total           14                       # number of SwapReq accesses(hits+misses)
system.cpu.dcache.SwapReq_miss_rate::.cpu.data     0.214286                       # miss rate for SwapReq accesses
system.cpu.dcache.SwapReq_miss_rate::total     0.214286                       # miss rate for SwapReq accesses
system.cpu.dcache.SwapReq_avg_miss_latency::.cpu.data        25500                       # average SwapReq miss latency
system.cpu.dcache.SwapReq_avg_miss_latency::total        25500                       # average SwapReq miss latency
system.cpu.dcache.SwapReq_mshr_misses::.cpu.data            3                       # number of SwapReq MSHR misses
system.cpu.dcache.SwapReq_mshr_misses::total            3                       # number of SwapReq MSHR misses
system.cpu.dcache.SwapReq_mshr_miss_latency::.cpu.data        73500                       # number of SwapReq MSHR miss cycles
system.cpu.dcache.SwapReq_mshr_miss_latency::total        73500                       # number of SwapReq MSHR miss cycles
system.cpu.dcache.SwapReq_mshr_miss_rate::.cpu.data     0.214286                       # mshr miss rate for SwapReq accesses
system.cpu.dcache.SwapReq_mshr_miss_rate::total     0.214286                       # mshr miss rate for SwapReq accesses
system.cpu.dcache.SwapReq_avg_mshr_miss_latency::.cpu.data        24500                       # average SwapReq mshr miss latency
system.cpu.dcache.SwapReq_avg_mshr_miss_latency::total        24500                       # average SwapReq mshr miss latency
system.cpu.dcache.ghosttags.tagsinuse    -33681314.030923                       # Cycle average of tags in use
system.cpu.dcache.ghosttags.total_refs              0                       # Total number of references to valid blocks.
system.cpu.dcache.ghosttags.sampled_refs            0                       # Sample count of references to valid blocks.
system.cpu.dcache.ghosttags.avg_refs              nan                       # Average number of references to valid blocks.
system.cpu.dcache.ghosttags.warmup_cycle       180500                       # Cycle when the warmup percentage was hit.
system.cpu.dcache.ghosttags.occ_blocks::.cpu.data 579642.478853                       # Average occupied blocks per requestor
system.cpu.dcache.ghosttags.occ_percent::.cpu.data 18113.827464                       # Average percentage of cache occupancy
system.cpu.dcache.ghosttags.occ_percent::total 18113.827464                       # Average percentage of cache occupancy
system.cpu.dcache.ghosttags.tag_accesses    830496814                       # Number of tag accesses
system.cpu.dcache.ghosttags.data_accesses    830496814                       # Number of data accesses
system.cpu.dcache.ghosttags.power_state.pwrStateResidencyTicks::UNDEFINED 921524893000                       # Cumulative time (in ticks) in various power states
system.cpu.dcache.power_state.pwrStateResidencyTicks::UNDEFINED 921524893000                       # Cumulative time (in ticks) in various power states
system.cpu.dcache.tags.tagsinuse         -579130.105424                       # Cycle average of tags in use
system.cpu.dcache.tags.total_refs           200008022                       # Total number of references to valid blocks.
system.cpu.dcache.tags.sampled_refs          62864862                       # Sample count of references to valid blocks.
system.cpu.dcache.tags.avg_refs              3.181555                       # Average number of references to valid blocks.
system.cpu.dcache.tags.warmup_cycle            254500                       # Cycle when the warmup percentage was hit.
system.cpu.dcache.tags.occ_blocks::.cpu.data -579130.105424                       # Average occupied blocks per requestor
system.cpu.dcache.tags.occ_percent::.cpu.data -1131.113487                       # Average percentage of cache occupancy
system.cpu.dcache.tags.occ_percent::total -1131.113487                       # Average percentage of cache occupancy
system.cpu.dcache.tags.occ_task_id_blocks::1024          512                       # Occupied blocks per task id
system.cpu.dcache.tags.age_task_id_blocks_1024::2           32                       # Occupied blocks per task id
system.cpu.dcache.tags.age_task_id_blocks_1024::3          477                       # Occupied blocks per task id
system.cpu.dcache.tags.age_task_id_blocks_1024::4            3                       # Occupied blocks per task id
system.cpu.dcache.tags.occ_task_id_percent::1024            1                       # Percentage of cache occupancy per task id
system.cpu.dcache.tags.tag_accesses        4459171786                       # Number of tag accesses
system.cpu.dcache.tags.data_accesses       4459171786                       # Number of data accesses
system.cpu.dcache.tags.power_state.pwrStateResidencyTicks::UNDEFINED 921524893000                       # Cumulative time (in ticks) in various power states
system.cpu.decode.idleCycles                 68809461                       # Number of cycles decode is idle
system.cpu.decode.blockedCycles            1609286557                       # Number of cycles decode is blocked
system.cpu.decode.runCycles                  96176933                       # Number of cycles decode is running
system.cpu.decode.unblockCycles              66843157                       # Number of cycles decode is unblocking
system.cpu.decode.squashCycles                1830691                       # Number of cycles decode is squashing
system.cpu.decode.branchResolved             65326104                       # Number of times decode resolved a  branch
system.cpu.decode.branchMispred                   390                       # Number of times decode detected a branch misprediction
system.cpu.decode.decodedInsts             1049961407                       # Number of instructions handled by decode
system.cpu.decode.squashedInsts                  1472                       # Number of squashed instructions handled by decode
system.cpu.dtb.instHits                             0                       # ITB inst hits
system.cpu.dtb.instMisses                           0                       # ITB inst misses
system.cpu.dtb.readHits                             0                       # DTB read hits
system.cpu.dtb.readMisses                           0                       # DTB read misses
system.cpu.dtb.writeHits                            0                       # DTB write hits
system.cpu.dtb.writeMisses                          0                       # DTB write misses
system.cpu.dtb.inserts                              0                       # Number of times an entry is inserted into the TLB
system.cpu.dtb.flushTlb                             0                       # Number of times complete TLB was flushed
system.cpu.dtb.flushTlbMva                          0                       # Number of times TLB was flushed by MVA
system.cpu.dtb.flushTlbMvaAsid                      0                       # Number of times TLB was flushed by MVA & ASID
system.cpu.dtb.flushTlbAsid                         0                       # Number of times TLB was flushed by ASID
system.cpu.dtb.flushedEntries                       0                       # Number of entries that have been flushed from TLB
system.cpu.dtb.alignFaults                          0                       # Number of TLB faults due to alignment restrictions
system.cpu.dtb.prefetchFaults                       0                       # Number of TLB faults due to prefetch
system.cpu.dtb.domainFaults                         0                       # Number of TLB faults due to domain restrictions
system.cpu.dtb.permsFaults                          0                       # Number of TLB faults due to permissions restrictions
system.cpu.dtb.readAccesses                         0                       # DTB read accesses
system.cpu.dtb.writeAccesses                        0                       # DTB write accesses
system.cpu.dtb.instAccesses                         0                       # ITB inst accesses
system.cpu.dtb.hits                                 0                       # Total TLB (inst and data) hits
system.cpu.dtb.misses                               0                       # Total TLB (inst and data) misses
system.cpu.dtb.accesses                             0                       # Total TLB (inst and data) accesses
system.cpu.dtb.stage2_mmu.stage2_tlb.instHits            0                       # ITB inst hits
system.cpu.dtb.stage2_mmu.stage2_tlb.instMisses            0                       # ITB inst misses
system.cpu.dtb.stage2_mmu.stage2_tlb.readHits            0                       # DTB read hits
system.cpu.dtb.stage2_mmu.stage2_tlb.readMisses            0                       # DTB read misses
system.cpu.dtb.stage2_mmu.stage2_tlb.writeHits            0                       # DTB write hits
system.cpu.dtb.stage2_mmu.stage2_tlb.writeMisses            0                       # DTB write misses
system.cpu.dtb.stage2_mmu.stage2_tlb.inserts            0                       # Number of times an entry is inserted into the TLB
system.cpu.dtb.stage2_mmu.stage2_tlb.flushTlb            0                       # Number of times complete TLB was flushed
system.cpu.dtb.stage2_mmu.stage2_tlb.flushTlbMva            0                       # Number of times TLB was flushed by MVA
system.cpu.dtb.stage2_mmu.stage2_tlb.flushTlbMvaAsid            0                       # Number of times TLB was flushed by MVA & ASID
system.cpu.dtb.stage2_mmu.stage2_tlb.flushTlbAsid            0                       # Number of times TLB was flushed by ASID
system.cpu.dtb.stage2_mmu.stage2_tlb.flushedEntries            0                       # Number of entries that have been flushed from TLB
system.cpu.dtb.stage2_mmu.stage2_tlb.alignFaults            0                       # Number of TLB faults due to alignment restrictions
system.cpu.dtb.stage2_mmu.stage2_tlb.prefetchFaults            0                       # Number of TLB faults due to prefetch
system.cpu.dtb.stage2_mmu.stage2_tlb.domainFaults            0                       # Number of TLB faults due to domain restrictions
system.cpu.dtb.stage2_mmu.stage2_tlb.permsFaults            0                       # Number of TLB faults due to permissions restrictions
system.cpu.dtb.stage2_mmu.stage2_tlb.readAccesses            0                       # DTB read accesses
system.cpu.dtb.stage2_mmu.stage2_tlb.writeAccesses            0                       # DTB write accesses
system.cpu.dtb.stage2_mmu.stage2_tlb.instAccesses            0                       # ITB inst accesses
system.cpu.dtb.stage2_mmu.stage2_tlb.hits            0                       # Total TLB (inst and data) hits
system.cpu.dtb.stage2_mmu.stage2_tlb.misses            0                       # Total TLB (inst and data) misses
system.cpu.dtb.stage2_mmu.stage2_tlb.accesses            0                       # Total TLB (inst and data) accesses
system.cpu.dtb.stage2_mmu.stage2_tlb.walker.walks            0                       # Table walker walks requested
system.cpu.dtb.stage2_mmu.stage2_tlb.walker.requestOrigin_Requested::Data            0                       # Table walker requests started/completed, data/inst
system.cpu.dtb.stage2_mmu.stage2_tlb.walker.requestOrigin_Requested::Inst            0                       # Table walker requests started/completed, data/inst
system.cpu.dtb.stage2_mmu.stage2_tlb.walker.requestOrigin_Requested::total            0                       # Table walker requests started/completed, data/inst
system.cpu.dtb.stage2_mmu.stage2_tlb.walker.requestOrigin_Completed::Data            0                       # Table walker requests started/completed, data/inst
system.cpu.dtb.stage2_mmu.stage2_tlb.walker.requestOrigin_Completed::Inst            0                       # Table walker requests started/completed, data/inst
system.cpu.dtb.stage2_mmu.stage2_tlb.walker.requestOrigin_Completed::total            0                       # Table walker requests started/completed, data/inst
system.cpu.dtb.stage2_mmu.stage2_tlb.walker.requestOrigin::total            0                       # Table walker requests started/completed, data/inst
system.cpu.dtb.stage2_mmu.stage2_tlb.walker.power_state.pwrStateResidencyTicks::UNDEFINED 921524893000                       # Cumulative time (in ticks) in various power states
system.cpu.dtb.walker.walks                         0                       # Table walker walks requested
system.cpu.dtb.walker.requestOrigin_Requested::Data            0                       # Table walker requests started/completed, data/inst
system.cpu.dtb.walker.requestOrigin_Requested::Inst            0                       # Table walker requests started/completed, data/inst
system.cpu.dtb.walker.requestOrigin_Requested::total            0                       # Table walker requests started/completed, data/inst
system.cpu.dtb.walker.requestOrigin_Completed::Data            0                       # Table walker requests started/completed, data/inst
system.cpu.dtb.walker.requestOrigin_Completed::Inst            0                       # Table walker requests started/completed, data/inst
system.cpu.dtb.walker.requestOrigin_Completed::total            0                       # Table walker requests started/completed, data/inst
system.cpu.dtb.walker.requestOrigin::total            0                       # Table walker requests started/completed, data/inst
system.cpu.dtb.walker.power_state.pwrStateResidencyTicks::UNDEFINED 921524893000                       # Cumulative time (in ticks) in various power states
system.cpu.fetch.icacheStallCycles          126420043                       # Number of cycles fetch is stalled on an Icache miss
system.cpu.fetch.insts                      592112796                       # Number of instructions fetch has processed
system.cpu.fetch.branches                    99774433                       # Number of branches that fetch encountered
system.cpu.fetch.predictedBranches           80240810                       # Number of branches that fetch has predicted taken
system.cpu.fetch.cycles                    1714695478                       # Number of cycles fetch has run and was not squashing or blocked
system.cpu.fetch.squashCycles                 3662160                       # Number of cycles fetch has spent squashing
system.cpu.fetch.miscStallCycles                   68                       # Number of cycles fetch has spent waiting on interrupts,or bad addresses, or out of MSHRs
system.cpu.fetch.pendingTrapStallCycles           107                       # Number of stall cycles due to pending traps
system.cpu.fetch.icacheWaitRetryStallCycles           23                       # Number of stall cycles due to full MSHR
system.cpu.fetch.cacheLines                 125450894                       # Number of cache lines fetched
system.cpu.fetch.icacheSquashes                256692                       # Number of outstanding Icache misses that were squashed
system.cpu.fetch.nisnDist::samples         1842946799                       # Number of instructions fetched each cycle (Total)
system.cpu.fetch.nisnDist::mean              0.598881                       # Number of instructions fetched each cycle (Total)
system.cpu.fetch.nisnDist::stdev             1.872241                       # Number of instructions fetched each cycle (Total)
system.cpu.fetch.nisnDist::underflows               0      0.00%      0.00% # Number of instructions fetched each cycle (Total)
system.cpu.fetch.nisnDist::0               1619982560     87.90%     87.90% # Number of instructions fetched each cycle (Total)
system.cpu.fetch.nisnDist::1                 41365782      2.24%     90.15% # Number of instructions fetched each cycle (Total)
system.cpu.fetch.nisnDist::2                 21301784      1.16%     91.30% # Number of instructions fetched each cycle (Total)
system.cpu.fetch.nisnDist::3                  8682483      0.47%     91.77% # Number of instructions fetched each cycle (Total)
system.cpu.fetch.nisnDist::4                 31308544      1.70%     93.47% # Number of instructions fetched each cycle (Total)
system.cpu.fetch.nisnDist::5                 18457916      1.00%     94.47% # Number of instructions fetched each cycle (Total)
system.cpu.fetch.nisnDist::6                  7474731      0.41%     94.88% # Number of instructions fetched each cycle (Total)
system.cpu.fetch.nisnDist::7                 23667691      1.28%     96.16% # Number of instructions fetched each cycle (Total)
system.cpu.fetch.nisnDist::8                 70705308      3.84%    100.00% # Number of instructions fetched each cycle (Total)
system.cpu.fetch.nisnDist::overflows                0      0.00%    100.00% # Number of instructions fetched each cycle (Total)
system.cpu.fetch.nisnDist::min_value                0                       # Number of instructions fetched each cycle (Total)
system.cpu.fetch.nisnDist::max_value                8                       # Number of instructions fetched each cycle (Total)
system.cpu.fetch.nisnDist::total           1842946799                       # Number of instructions fetched each cycle (Total)
system.cpu.fetch.branchRate                  0.054136                       # Number of branch fetches per cycle
system.cpu.fetch.rate                        0.321268                       # Number of inst fetches per cycle
system.cpu.icache.demand_hits::.cpu.inst    125449398                       # number of demand (read+write) hits
system.cpu.icache.demand_hits::total        125449398                       # number of demand (read+write) hits
system.cpu.icache.overall_hits::.cpu.inst    125449398                       # number of overall hits
system.cpu.icache.overall_hits::total       125449398                       # number of overall hits
system.cpu.icache.demand_misses::.cpu.inst         1495                       # number of demand (read+write) misses
system.cpu.icache.demand_misses::total           1495                       # number of demand (read+write) misses
system.cpu.icache.overall_misses::.cpu.inst         1495                       # number of overall misses
system.cpu.icache.overall_misses::total          1495                       # number of overall misses
system.cpu.icache.demand_miss_latency::.cpu.inst    112697999                       # number of demand (read+write) miss cycles
system.cpu.icache.demand_miss_latency::total    112697999                       # number of demand (read+write) miss cycles
system.cpu.icache.overall_miss_latency::.cpu.inst    112697999                       # number of overall miss cycles
system.cpu.icache.overall_miss_latency::total    112697999                       # number of overall miss cycles
system.cpu.icache.demand_accesses::.cpu.inst    125450893                       # number of demand (read+write) accesses
system.cpu.icache.demand_accesses::total    125450893                       # number of demand (read+write) accesses
system.cpu.icache.overall_accesses::.cpu.inst    125450893                       # number of overall (read+write) accesses
system.cpu.icache.overall_accesses::total    125450893                       # number of overall (read+write) accesses
system.cpu.icache.demand_miss_rate::.cpu.inst     0.000012                       # miss rate for demand accesses
system.cpu.icache.demand_miss_rate::total     0.000012                       # miss rate for demand accesses
system.cpu.icache.overall_miss_rate::.cpu.inst     0.000012                       # miss rate for overall accesses
system.cpu.icache.overall_miss_rate::total     0.000012                       # miss rate for overall accesses
system.cpu.icache.demand_avg_miss_latency::.cpu.inst 75383.276923                       # average overall miss latency
system.cpu.icache.demand_avg_miss_latency::total 75383.276923                       # average overall miss latency
system.cpu.icache.overall_avg_miss_latency::.cpu.inst 75383.276923                       # average overall miss latency
system.cpu.icache.overall_avg_miss_latency::total 75383.276923                       # average overall miss latency
system.cpu.icache.blocked_cycles::no_mshrs          822                       # number of cycles access was blocked
system.cpu.icache.blocked_cycles::no_targets            0                       # number of cycles access was blocked
system.cpu.icache.blocked::no_mshrs                12                       # number of cycles access was blocked
system.cpu.icache.blocked::no_targets               0                       # number of cycles access was blocked
system.cpu.icache.avg_blocked_cycles::no_mshrs    68.500000                       # average number of cycles each access was blocked
system.cpu.icache.avg_blocked_cycles::no_targets          nan                       # average number of cycles each access was blocked
system.cpu.icache.ghost_timestamp_misses            0                       # number of times timestamp policy causes a block to be inaccessible
system.cpu.icache.ghost_commits                   631                       # number of cache lines moved from ghost to main
system.cpu.icache.same_leapfrogs                    0                       # number of times leapfrogging occurs with a shared MSHR request
system.cpu.icache.writebacks::.writebacks          776                       # number of writebacks
system.cpu.icache.writebacks::total               776                       # number of writebacks
system.cpu.icache.demand_mshr_hits::.cpu.inst          213                       # number of demand (read+write) MSHR hits
system.cpu.icache.demand_mshr_hits::total          213                       # number of demand (read+write) MSHR hits
system.cpu.icache.overall_mshr_hits::.cpu.inst          213                       # number of overall MSHR hits
system.cpu.icache.overall_mshr_hits::total          213                       # number of overall MSHR hits
[...]
system.mem_ctrls.dram.perBankWrBursts::0      1815435                       # Per bank write bursts
system.mem_ctrls.dram.perBankWrBursts::1      1813492                       # Per bank write bursts
system.mem_ctrls.dram.perBankWrBursts::2      1814716                       # Per bank write bursts
system.mem_ctrls.dram.perBankWrBursts::3      1814154                       # Per bank write bursts
system.mem_ctrls.dram.perBankWrBursts::4      1814600                       # Per bank write bursts
system.mem_ctrls.dram.perBankWrBursts::5      1814571                       # Per bank write bursts
system.mem_ctrls.dram.perBankWrBursts::6      1814071                       # Per bank write bursts
system.mem_ctrls.dram.perBankWrBursts::7      1814324                       # Per bank write bursts
system.mem_ctrls.dram.perBankWrBursts::8      1814014                       # Per bank write bursts
system.mem_ctrls.dram.perBankWrBursts::9      1814867                       # Per bank write bursts
system.mem_ctrls.dram.perBankWrBursts::10      1813325                       # Per bank write bursts
system.mem_ctrls.dram.perBankWrBursts::11      1814638                       # Per bank write bursts
system.mem_ctrls.dram.perBankWrBursts::12      1813913                       # Per bank write bursts
system.mem_ctrls.dram.perBankWrBursts::13      1815097                       # Per bank write bursts
system.mem_ctrls.dram.perBankWrBursts::14      1813363                       # Per bank write bursts
system.mem_ctrls.dram.perBankWrBursts::15      1814402                       # Per bank write bursts
system.mem_ctrls.dram.perBankWrBursts::16      1814413                       # Per bank write bursts
system.mem_ctrls.dram.perBankWrBursts::17      1814394                       # Per bank write bursts
system.mem_ctrls.dram.perBankWrBursts::18      1814043                       # Per bank write bursts
system.mem_ctrls.dram.perBankWrBursts::19      1814415                       # Per bank write bursts
system.mem_ctrls.dram.perBankWrBursts::20      1814674                       # Per bank write bursts
system.mem_ctrls.dram.perBankWrBursts::21      1814429                       # Per bank write bursts
system.mem_ctrls.dram.perBankWrBursts::22      1814154                       # Per bank write bursts
system.mem_ctrls.dram.perBankWrBursts::23      1814562                       # Per bank write bursts
system.mem_ctrls.dram.perBankWrBursts::24      1814759                       # Per bank write bursts
system.mem_ctrls.dram.perBankWrBursts::25      1814220                       # Per bank write bursts
system.mem_ctrls.dram.perBankWrBursts::26      1814290                       # Per bank write bursts
system.mem_ctrls.dram.perBankWrBursts::27      1813961                       # Per bank write bursts
system.mem_ctrls.dram.perBankWrBursts::28      1815333                       # Per bank write bursts
system.mem_ctrls.dram.perBankWrBursts::29      1813807                       # Per bank write bursts
system.mem_ctrls.dram.perBankWrBursts::30      1814920                       # Per bank write bursts
system.mem_ctrls.dram.perBankWrBursts::31      1813371                       # Per bank write bursts
system.mem_ctrls.dram.totQLat            5629368268668                       # Total ticks spent queuing
system.mem_ctrls.dram.totBusLat          200635130500                       # Total ticks spent in databus transfers
system.mem_ctrls.dram.totMemAccLat       6682642489168                       # Total ticks spent from burst creation until serviced by the DRAM
system.mem_ctrls.dram.avgQLat                93488.39                       # Average queueing delay per DRAM burst
system.mem_ctrls.dram.avgBusLat               3332.00                       # Average bus latency per DRAM burst
system.mem_ctrls.dram.avgMemAccLat          110980.39                       # Average memory access latency per DRAM burst
system.mem_ctrls.dram.readRowHits            55322233                       # Number of row buffer hits during reads
system.mem_ctrls.dram.writeRowHits           51025727                       # Number of row buffer hits during writes
system.mem_ctrls.dram.readRowHitRate            91.88                       # Row buffer hit rate for reads
system.mem_ctrls.dram.writeRowHitRate           87.89                       # Row buffer hit rate for writes
system.mem_ctrls.dram.bytesPerActivate::samples     11925392                       # Bytes accessed per row activation
system.mem_ctrls.dram.bytesPerActivate::mean   634.737586                       # Bytes accessed per row activation
system.mem_ctrls.dram.bytesPerActivate::gmean   465.802125                       # Bytes accessed per row activation
system.mem_ctrls.dram.bytesPerActivate::stdev   361.699125                       # Bytes accessed per row activation
system.mem_ctrls.dram.bytesPerActivate::0-127      1484676     12.45%     12.45% # Bytes accessed per row activation
system.mem_ctrls.dram.bytesPerActivate::128-255      1178419      9.88%     22.33% # Bytes accessed per row activation
system.mem_ctrls.dram.bytesPerActivate::256-383       649022      5.44%     27.77% # Bytes accessed per row activation
system.mem_ctrls.dram.bytesPerActivate::384-511       698546      5.86%     33.63% # Bytes accessed per row activation
system.mem_ctrls.dram.bytesPerActivate::512-639      1537685     12.89%     46.53% # Bytes accessed per row activation
system.mem_ctrls.dram.bytesPerActivate::640-767       936429      7.85%     54.38% # Bytes accessed per row activation
system.mem_ctrls.dram.bytesPerActivate::768-895       783313      6.57%     60.95% # Bytes accessed per row activation
system.mem_ctrls.dram.bytesPerActivate::896-1023       598115      5.02%     65.96% # Bytes accessed per row activation
system.mem_ctrls.dram.bytesPerActivate::1024-1151      4059187     34.04%    100.00% # Bytes accessed per row activation
system.mem_ctrls.dram.bytesPerActivate::total     11925392                       # Bytes accessed per row activation
system.mem_ctrls.dram.bytesRead            3853736000                       # Total number of bytes read from DRAM
system.mem_ctrls.dram.bytesWritten         3715758528                       # Total number of bytes written to DRAM
system.mem_ctrls.dram.avgRdBW             4181.911991                       # Average DRAM read bandwidth in MiBytes/s
system.mem_ctrls.dram.avgWrBW             4032.184650                       # Average DRAM write bandwidth in MiBytes/s
system.mem_ctrls.dram.peakBW                 19207.00                       # Theoretical peak bandwidth in MiByte/s
system.mem_ctrls.dram.busUtil                   42.77                       # Data bus utilization in percentage
system.mem_ctrls.dram.busUtilRead               21.77                       # Data bus utilization in percentage for reads
system.mem_ctrls.dram.busUtilWrite              20.99                       # Data bus utilization in percentage for writes
system.mem_ctrls.dram.pageHitRate               89.92                       # Row buffer hit rate, read and write combined
system.mem_ctrls.dram.power_state.pwrStateResidencyTicks::UNDEFINED 921524893000                       # Cumulative time (in ticks) in various power states
system.mem_ctrls.dram.rank0.actEnergy    9298964525.759861                       # Energy for activate commands per rank (pJ)
system.mem_ctrls.dram.rank0.preEnergy    16416248912.783546                       # Energy for precharge commands per rank (pJ)
system.mem_ctrls.dram.rank0.readEnergy   82582883052.229965                       # Energy for read commands per rank (pJ)
system.mem_ctrls.dram.rank0.writeEnergy  68480994160.996376                       # Energy for write commands per rank (pJ)
system.mem_ctrls.dram.rank0.refreshEnergy 79993586995.117905                       # Energy for refresh commands per rank (pJ)
system.mem_ctrls.dram.rank0.actBackEnergy 331161770796.467407                       # Energy for active background per rank (pJ)
system.mem_ctrls.dram.rank0.preBackEnergy 72166431652.072083                       # Energy for precharge background per rank (pJ)
system.mem_ctrls.dram.rank0.actPowerDownEnergy            0                       # Energy for active power-down per rank (pJ)
system.mem_ctrls.dram.rank0.prePowerDownEnergy            0                       # Energy for precharge power-down per rank (pJ)
system.mem_ctrls.dram.rank0.selfRefreshEnergy            0                       # Energy for self refresh per rank (pJ)
system.mem_ctrls.dram.rank0.totalEnergy  660100880095.607788                       # Total energy per rank (pJ)
system.mem_ctrls.dram.rank0.averagePower   716.313672                       # Core power per rank (mW)
system.mem_ctrls.dram.rank0.totalIdleTime            0                       # Total Idle time Per DRAM Rank
system.mem_ctrls.dram.rank0.pwrStateTime::IDLE 214270933348                       # Time in different power states
system.mem_ctrls.dram.rank0.pwrStateTime::REF  41425650000                       # Time in different power states
system.mem_ctrls.dram.rank0.pwrStateTime::SREF            0                       # Time in different power states
system.mem_ctrls.dram.rank0.pwrStateTime::PRE_PDN            0                       # Time in different power states
system.mem_ctrls.dram.rank0.pwrStateTime::ACT 665828309652                       # Time in different power states
system.mem_ctrls.dram.rank0.pwrStateTime::ACT_PDN            0                       # Time in different power states
system.mem_ctrls.dram.rank1.actEnergy    9297205549.631729                       # Energy for activate commands per rank (pJ)
system.mem_ctrls.dram.rank1.preEnergy    16413143643.388224                       # Energy for precharge commands per rank (pJ)
system.mem_ctrls.dram.rank1.readEnergy   82579956375.369110                       # Energy for read commands per rank (pJ)
system.mem_ctrls.dram.rank1.writeEnergy  68482794120.723198                       # Energy for write commands per rank (pJ)
system.mem_ctrls.dram.rank1.refreshEnergy 79993586995.117905                       # Energy for refresh commands per rank (pJ)
system.mem_ctrls.dram.rank1.actBackEnergy 331143410257.622009                       # Energy for active background per rank (pJ)
system.mem_ctrls.dram.rank1.preBackEnergy 72179106947.925934                       # Energy for precharge background per rank (pJ)
system.mem_ctrls.dram.rank1.actPowerDownEnergy            0                       # Energy for active power-down per rank (pJ)
system.mem_ctrls.dram.rank1.prePowerDownEnergy            0                       # Energy for precharge power-down per rank (pJ)
system.mem_ctrls.dram.rank1.selfRefreshEnergy            0                       # Energy for self refresh per rank (pJ)
system.mem_ctrls.dram.rank1.totalEnergy  660089203889.944458                       # Total energy per rank (pJ)
system.mem_ctrls.dram.rank1.averagePower   716.301002                       # Core power per rank (mW)
system.mem_ctrls.dram.rank1.totalIdleTime            0                       # Total Idle time Per DRAM Rank
system.mem_ctrls.dram.rank1.pwrStateTime::IDLE 214307653131                       # Time in different power states
system.mem_ctrls.dram.rank1.pwrStateTime::REF  41425650000                       # Time in different power states
system.mem_ctrls.dram.rank1.pwrStateTime::SREF            0                       # Time in different power states
system.mem_ctrls.dram.rank1.pwrStateTime::PRE_PDN            0                       # Time in different power states
system.mem_ctrls.dram.rank1.pwrStateTime::ACT 665791589869                       # Time in different power states
system.mem_ctrls.dram.rank1.pwrStateTime::ACT_PDN            0                       # Time in different power states
system.mem_ctrls.power_state.pwrStateResidencyTicks::UNDEFINED 921524893000                       # Cumulative time (in ticks) in various power states
system.membus.trans_dist::ReadResp           55108365                       # Transaction distribution
system.membus.trans_dist::WritebackDirty     58058786                       # Transaction distribution
system.membus.trans_dist::CleanEvict          2024422                       # Transaction distribution
system.membus.trans_dist::UpgradeReq          1625701                       # Transaction distribution
system.membus.trans_dist::SCUpgradeReq              1                       # Transaction distribution
system.membus.trans_dist::ReadExReq           5106260                       # Transaction distribution
system.membus.trans_dist::ReadExResp          5106260                       # Transaction distribution
system.membus.trans_dist::ReadCleanReq       55108365                       # Transaction distribution
system.membus.trans_dist::InvalidateReq           293                       # Transaction distribution
system.membus.pkt_count_system.l2.mem_side_port::system.mem_ctrls.port    182138453                       # Packet count per connected requestor and responder (bytes)
system.membus.pkt_count::total              182138453                       # Packet count per connected requestor and responder (bytes)
system.membus.pkt_size_system.l2.mem_side_port::system.mem_ctrls.port   7569498304                       # Cumulative packet size per connected requestor and responder (bytes)
system.membus.pkt_size::total              7569498304                       # Cumulative packet size per connected requestor and responder (bytes)
system.membus.snoops                                0                       # Total snoops (count)
system.membus.snoopTraffic                          0                       # Total snoop traffic (bytes)
system.membus.snoop_fanout::samples          61840620                       # Request fanout histogram
system.membus.snoop_fanout::mean                    0                       # Request fanout histogram
system.membus.snoop_fanout::stdev                   0                       # Request fanout histogram
system.membus.snoop_fanout::underflows              0      0.00%      0.00% # Request fanout histogram
system.membus.snoop_fanout::0                61840620    100.00%    100.00% # Request fanout histogram
system.membus.snoop_fanout::1                       0      0.00%    100.00% # Request fanout histogram
system.membus.snoop_fanout::overflows               0      0.00%    100.00% # Request fanout histogram
system.membus.snoop_fanout::min_value               0                       # Request fanout histogram
system.membus.snoop_fanout::max_value               0                       # Request fanout histogram
system.membus.snoop_fanout::total            61840620                       # Request fanout histogram
system.membus.power_state.pwrStateResidencyTicks::UNDEFINED 921524893000                       # Cumulative time (in ticks) in various power states
system.membus.reqLayer0.occupancy        360381501425                       # Layer occupancy (ticks)
system.membus.reqLayer0.utilization              39.1                       # Layer utilization (%)
system.membus.respLayer1.occupancy       305732738326                       # Layer occupancy (ticks)
system.membus.respLayer1.utilization             33.2                       # Layer utilization (%)
system.tol2bus.trans_dist::ReadResp           5521779                       # Transaction distribution
system.tol2bus.trans_dist::WritebackDirty    116207461                       # Transaction distribution
system.tol2bus.trans_dist::WritebackClean       156473                       # Transaction distribution
system.tol2bus.trans_dist::CleanEvict         2036337                       # Transaction distribution
system.tol2bus.trans_dist::HardPFReq        101671321                       # Transaction distribution
system.tol2bus.trans_dist::UpgradeReq         5346514                       # Transaction distribution
system.tol2bus.trans_dist::SCUpgradeReq             1                       # Transaction distribution
system.tol2bus.trans_dist::UpgradeResp        5346515                       # Transaction distribution
system.tol2bus.trans_dist::ReadExReq         51242105                       # Transaction distribution
system.tol2bus.trans_dist::ReadExResp        51242105                       # Transaction distribution
system.tol2bus.trans_dist::ReadCleanReq       5521779                       # Transaction distribution
system.tol2bus.trans_dist::InvalidateReq      1560421                       # Transaction distribution
system.tol2bus.trans_dist::InvalidateResp      1560421                       # Transaction distribution
system.tol2bus.pkt_count_system.cpu.icache.mem_side_port::system.l2.cpu_side_port         3357                       # Packet count per connected requestor and responder (bytes)
system.tol2bus.pkt_count_system.cpu.dcache.mem_side_port::system.l2.cpu_side_port    185661587                       # Packet count per connected requestor and responder (bytes)
system.tol2bus.pkt_count::total             185664944                       # Packet count per connected requestor and responder (bytes)
system.tol2bus.pkt_size_system.cpu.icache.mem_side_port::system.l2.cpu_side_port        91328                       # Cumulative packet size per connected requestor and responder (bytes)
system.tol2bus.pkt_size_system.cpu.dcache.mem_side_port::system.l2.cpu_side_port   7364326720                       # Cumulative packet size per connected requestor and responder (bytes)
system.tol2bus.pkt_size::total             7364418048                       # Cumulative packet size per connected requestor and responder (bytes)
system.tol2bus.snoops                       161748288                       # Total snoops (count)
system.tol2bus.snoopTraffic                3715762304                       # Total snoop traffic (bytes)
system.tol2bus.snoop_fanout::samples        225419108                       # Request fanout histogram
system.tol2bus.snoop_fanout::mean            0.000040                       # Request fanout histogram
system.tol2bus.snoop_fanout::stdev           0.006343                       # Request fanout histogram
system.tol2bus.snoop_fanout::underflows             0      0.00%      0.00% # Request fanout histogram
system.tol2bus.snoop_fanout::0              225410037    100.00%    100.00% # Request fanout histogram
system.tol2bus.snoop_fanout::1                   9071      0.00%    100.00% # Request fanout histogram
system.tol2bus.snoop_fanout::2                      0      0.00%    100.00% # Request fanout histogram
system.tol2bus.snoop_fanout::overflows              0      0.00%    100.00% # Request fanout histogram
system.tol2bus.snoop_fanout::min_value              0                       # Request fanout histogram
system.tol2bus.snoop_fanout::max_value              1                       # Request fanout histogram
system.tol2bus.snoop_fanout::total          225419108                       # Request fanout histogram
system.tol2bus.power_state.pwrStateResidencyTicks::UNDEFINED 921524893000                       # Cumulative time (in ticks) in various power states
system.tol2bus.reqLayer0.occupancy       121575920965                       # Layer occupancy (ticks)
system.tol2bus.reqLayer0.utilization             13.2                       # Layer utilization (%)
system.tol2bus.respLayer0.occupancy           1923000                       # Layer occupancy (ticks)
system.tol2bus.respLayer0.utilization             0.0                       # Layer utilization (%)
system.tol2bus.respLayer1.occupancy       88597371998                       # Layer occupancy (ticks)
system.tol2bus.respLayer1.utilization             9.6                       # Layer utilization (%)
system.voltage_domain.voltage                       1                       # Voltage in Volts

---------- End Simulation Statistics   ----------
