
---------- Begin Simulation Statistics ----------
final_tick                               126866612500                       # Number of ticks from beginning of simulation (restored from checkpoints and never reset)
host_inst_rate                                 176242                       # Simulator instruction rate (inst/s)
host_mem_usage                                8686832                       # Number of bytes of host memory used
host_op_rate                                   196503                       # Simulator op (including micro ops) rate (op/s)
host_seconds                                  2837.00                       # Real time elapsed on the host
host_tick_rate                               44718521                       # Simulator tick rate (ticks/s)
sim_freq                                 1000000000000                       # Frequency of simulated ticks
sim_insts                                   500000005                       # Number of instructions simulated
sim_ops                                     557478728                       # Number of ops (including micro ops) simulated
sim_seconds                                  0.126867                       # Number of seconds simulated
sim_ticks                                126866612500                       # Number of ticks simulated
system.cpu.cc_regfile_reads                 221547456                       # number of cc regfile reads
system.cpu.cc_regfile_writes                208140837                       # number of cc regfile writes
system.cpu.committedInsts                   500000005                       # Number of Instructions Simulated
system.cpu.committedOps                     557478728                       # Number of Ops (including micro ops) Simulated
system.cpu.cpi                               0.507466                       # CPI: Cycles Per Instruction
system.cpu.cpi_total                         0.507466                       # CPI: Total CPI of All Threads
system.cpu.dcache.MSHRs.leapFrogMisses              9                       # number of false blocks from MSHR
system.cpu.icache.MSHRs.leapFrogMisses              0                       # number of false blocks from MSHR
system.cpu.idleCycles                           83266                       # Total number of cycles that the CPU has spent unscheduled due to idling
system.cpu.iew.branchMispredicts               665060                       # Number of branch mispredicts detected at execute
system.cpu.iew.exec_branches                104370625                       # Number of branches executed
system.cpu.iew.exec_nop                       1452613                       # number of nop insts executed
system.cpu.iew.exec_rate                     2.266344                       # Inst execution rate
system.cpu.iew.exec_refs                    170238783                       # number of memory reference insts executed
system.cpu.iew.exec_stores                   78798893                       # Number of stores executed
system.cpu.iew.exec_swp                             0                       # number of swp insts executed
system.cpu.iew.iewBlockCycles                 1574649                       # Number of cycles IEW is blocking
system.cpu.iew.iewDispLoadInsts              84225936                       # Number of dispatched load instructions
system.cpu.iew.iewDispNonSpecInsts                837                       # Number of dispatched non-speculative instructions
system.cpu.iew.iewDispSquashedInsts               186                       # Number of squashed instructions skipped by dispatch
system.cpu.iew.iewDispStoreInsts             78977244                       # Number of dispatched store instructions
system.cpu.iew.iewDispatchedInsts           572278982                       # Number of instructions dispatched to IQ
system.cpu.iew.iewExecLoadInsts              91439890                       # Number of load instructions executed
system.cpu.iew.iewExecSquashedInsts            646670                       # Number of squashed instructions skipped in execute
system.cpu.iew.iewExecutedInsts             575046888                       # Number of executed instructions
system.cpu.iew.iewIQFullEvents                  18814                       # Number of times the IQ has become full, causing a stall
system.cpu.iew.iewIdleCycles                        0                       # Number of cycles IEW is idle
system.cpu.iew.iewLSQFullEvents              16919585                       # Number of times the LSQ has become full, causing a stall
system.cpu.iew.iewSquashCycles                 520385                       # Number of cycles IEW is squashing
system.cpu.iew.iewUnblockCycles              16940023                       # Number of cycles IEW is unblocking
system.cpu.iew.memOrderViolationEvents           3141                       # Number of memory order violations
system.cpu.iew.predictedNotTakenIncorrect       278147                       # Number of branches that were predicted not taken incorrectly
system.cpu.iew.predictedTakenIncorrect         386913                       # Number of branches that were predicted taken incorrectly
system.cpu.iew.wb_consumers                 551366244                       # num instructions consuming a value
system.cpu.iew.wb_count                     566975498                       # cumulative count of insts written-back
system.cpu.iew.wb_fanout                     0.515803                       # average fanout of values written-back
system.cpu.iew.wb_producers                 284396484                       # num instructions producing a value
system.cpu.iew.wb_rate                       2.234534                       # insts written-back per cycle
system.cpu.iew.wb_sent                      567185121                       # cumulative count of insts sent to commit
system.cpu.int_regfile_reads                648266084                       # number of integer regfile reads
system.cpu.int_regfile_writes               395206893                       # number of integer regfile writes
system.cpu.ipc                               1.970574                       # IPC: Instructions Per Cycle
system.cpu.ipc_total                         1.970574                       # IPC: Total IPC of All Threads
system.cpu.iq.FU_type_0::No_OpClass            210627      0.04%      0.04% # Type of FU issued
system.cpu.iq.FU_type_0::IntAlu             398442526     69.21%     69.25% # Type of FU issued
system.cpu.iq.FU_type_0::IntMult              3609252      0.63%     69.87% # Type of FU issued
system.cpu.iq.FU_type_0::IntDiv                269872      0.05%     69.92% # Type of FU issued
system.cpu.iq.FU_type_0::FloatAdd                   0      0.00%     69.92% # Type of FU issued
system.cpu.iq.FU_type_0::FloatCmp                   0      0.00%     69.92% # Type of FU issued
system.cpu.iq.FU_type_0::FloatCvt                   4      0.00%     69.92% # Type of FU issued
system.cpu.iq.FU_type_0::FloatMult                  2      0.00%     69.92% # Type of FU issued
system.cpu.iq.FU_type_0::FloatMultAcc               0      0.00%     69.92% # Type of FU issued
system.cpu.iq.FU_type_0::FloatDiv                   0      0.00%     69.92% # Type of FU issued
system.cpu.iq.FU_type_0::FloatMisc             604791      0.11%     70.03% # Type of FU issued
system.cpu.iq.FU_type_0::FloatSqrt                  0      0.00%     70.03% # Type of FU issued
system.cpu.iq.FU_type_0::SimdAdd                    2      0.00%     70.03% # Type of FU issued
system.cpu.iq.FU_type_0::SimdAddAcc                 0      0.00%     70.03% # Type of FU issued
system.cpu.iq.FU_type_0::SimdAlu               215886      0.04%     70.06% # Type of FU issued
system.cpu.iq.FU_type_0::SimdCmp              1067636      0.19%     70.25% # Type of FU issued
system.cpu.iq.FU_type_0::SimdCvt                    2      0.00%     70.25% # Type of FU issued
system.cpu.iq.FU_type_0::SimdMisc              420869      0.07%     70.32% # Type of FU issued
system.cpu.iq.FU_type_0::SimdMult                   0      0.00%     70.32% # Type of FU issued
system.cpu.iq.FU_type_0::SimdMultAcc                0      0.00%     70.32% # Type of FU issued
system.cpu.iq.FU_type_0::SimdShift             428711      0.07%     70.40% # Type of FU issued
system.cpu.iq.FU_type_0::SimdShiftAcc               0      0.00%     70.40% # Type of FU issued
system.cpu.iq.FU_type_0::SimdDiv                    0      0.00%     70.40% # Type of FU issued
system.cpu.iq.FU_type_0::SimdSqrt                   0      0.00%     70.40% # Type of FU issued
system.cpu.iq.FU_type_0::SimdFloatAdd               0      0.00%     70.40% # Type of FU issued
system.cpu.iq.FU_type_0::SimdFloatAlu               0      0.00%     70.40% # Type of FU issued
system.cpu.iq.FU_type_0::SimdFloatCmp               0      0.00%     70.40% # Type of FU issued
system.cpu.iq.FU_type_0::SimdFloatCvt               0      0.00%     70.40% # Type of FU issued
system.cpu.iq.FU_type_0::SimdFloatDiv               0      0.00%     70.40% # Type of FU issued
system.cpu.iq.FU_type_0::SimdFloatMisc              0      0.00%     70.40% # Type of FU issued
system.cpu.iq.FU_type_0::SimdFloatMult              0      0.00%     70.40% # Type of FU issued
system.cpu.iq.FU_type_0::SimdFloatMultAcc            0      0.00%     70.40% # Type of FU issued
system.cpu.iq.FU_type_0::SimdFloatSqrt              0      0.00%     70.40% # Type of FU issued
system.cpu.iq.FU_type_0::SimdReduceAdd              0      0.00%     70.40% # Type of FU issued
system.cpu.iq.FU_type_0::SimdReduceAlu              0      0.00%     70.40% # Type of FU issued
system.cpu.iq.FU_type_0::SimdReduceCmp              0      0.00%     70.40% # Type of FU issued
system.cpu.iq.FU_type_0::SimdFloatReduceAdd            0      0.00%     70.40% # Type of FU issued
system.cpu.iq.FU_type_0::SimdFloatReduceCmp            0      0.00%     70.40% # Type of FU issued
system.cpu.iq.FU_type_0::SimdAes                    0      0.00%     70.40% # Type of FU issued
system.cpu.iq.FU_type_0::SimdAesMix                 0      0.00%     70.40% # Type of FU issued
system.cpu.iq.FU_type_0::SimdSha1Hash               0      0.00%     70.40% # Type of FU issued
system.cpu.iq.FU_type_0::SimdSha1Hash2              0      0.00%     70.40% # Type of FU issued
system.cpu.iq.FU_type_0::SimdSha256Hash             0      0.00%     70.40% # Type of FU issued
system.cpu.iq.FU_type_0::SimdSha256Hash2            0      0.00%     70.40% # Type of FU issued
system.cpu.iq.FU_type_0::SimdShaSigma2              0      0.00%     70.40% # Type of FU issued
system.cpu.iq.FU_type_0::SimdShaSigma3              0      0.00%     70.40% # Type of FU issued
system.cpu.iq.FU_type_0::SimdPredAlu                0      0.00%     70.40% # Type of FU issued
system.cpu.iq.FU_type_0::MemRead             91619999     15.91%     86.31% # Type of FU issued
system.cpu.iq.FU_type_0::MemWrite            78803383     13.69%    100.00% # Type of FU issued
system.cpu.iq.FU_type_0::FloatMemRead               0      0.00%    100.00% # Type of FU issued
system.cpu.iq.FU_type_0::FloatMemWrite              0      0.00%    100.00% # Type of FU issued
system.cpu.iq.FU_type_0::IprAccess                  0      0.00%    100.00% # Type of FU issued
system.cpu.iq.FU_type_0::InstPrefetch               0      0.00%    100.00% # Type of FU issued
system.cpu.iq.FU_type_0::total              575693562                       # Type of FU issued
system.cpu.iq.fp_alu_accesses                       0                       # Number of floating point alu accesses
system.cpu.iq.fp_inst_queue_reads                   0                       # Number of floating instruction queue reads
system.cpu.iq.fp_inst_queue_wakeup_accesses            0                       # Number of floating instruction queue wakeup accesses
system.cpu.iq.fp_inst_queue_writes                  0                       # Number of floating instruction queue writes
system.cpu.iq.fu_busy_cnt                    15247617                       # FU busy when requested
system.cpu.iq.fu_busy_rate                   0.026486                       # FU busy rate (busy events/executed inst)
system.cpu.iq.fu_full::No_OpClass                   0      0.00%      0.00% # attempts to use FU when none available
system.cpu.iq.fu_full::IntAlu                 6641086     43.55%     43.55% # attempts to use FU when none available
system.cpu.iq.fu_full::IntMult                 344731      2.26%     45.82% # attempts to use FU when none available
system.cpu.iq.fu_full::IntDiv                    3173      0.02%     45.84% # attempts to use FU when none available
system.cpu.iq.fu_full::FloatAdd                     0      0.00%     45.84% # attempts to use FU when none available
system.cpu.iq.fu_full::FloatCmp                     0      0.00%     45.84% # attempts to use FU when none available
system.cpu.iq.fu_full::FloatCvt                     0      0.00%     45.84% # attempts to use FU when none available
system.cpu.iq.fu_full::FloatMult                    0      0.00%     45.84% # attempts to use FU when none available
system.cpu.iq.fu_full::FloatMultAcc                 0      0.00%     45.84% # attempts to use FU when none available
system.cpu.iq.fu_full::FloatDiv                     0      0.00%     45.84% # attempts to use FU when none available
system.cpu.iq.fu_full::FloatMisc               127131      0.83%     46.67% # attempts to use FU when none available
system.cpu.iq.fu_full::FloatSqrt                    0      0.00%     46.67% # attempts to use FU when none available
system.cpu.iq.fu_full::SimdAdd                      0      0.00%     46.67% # attempts to use FU when none available
system.cpu.iq.fu_full::SimdAddAcc                   0      0.00%     46.67% # attempts to use FU when none available
system.cpu.iq.fu_full::SimdAlu                      0      0.00%     46.67% # attempts to use FU when none available
system.cpu.iq.fu_full::SimdCmp                      0      0.00%     46.67% # attempts to use FU when none available
system.cpu.iq.fu_full::SimdCvt                      0      0.00%     46.67% # attempts to use FU when none available
system.cpu.iq.fu_full::SimdMisc                     0      0.00%     46.67% # attempts to use FU when none available
system.cpu.iq.fu_full::SimdMult                     0      0.00%     46.67% # attempts to use FU when none available
system.cpu.iq.fu_full::SimdMultAcc                  0      0.00%     46.67% # attempts to use FU when none available
system.cpu.iq.fu_full::SimdShift                    0      0.00%     46.67% # attempts to use FU when none available
system.cpu.iq.fu_full::SimdShiftAcc                 0      0.00%     46.67% # attempts to use FU when none available
system.cpu.iq.fu_full::SimdDiv                      0      0.00%     46.67% # attempts to use FU when none available
system.cpu.iq.fu_full::SimdSqrt                     0      0.00%     46.67% # attempts to use FU when none available
system.cpu.iq.fu_full::SimdFloatAdd                 0      0.00%     46.67% # attempts to use FU when none available
system.cpu.iq.fu_full::SimdFloatAlu                 0      0.00%     46.67% # attempts to use FU when none available
system.cpu.iq.fu_full::SimdFloatCmp                 0      0.00%     46.67% # attempts to use FU when none available
system.cpu.iq.fu_full::SimdFloatCvt                 0      0.00%     46.67% # attempts to use FU when none available
system.cpu.iq.fu_full::SimdFloatDiv                 0      0.00%     46.67% # attempts to use FU when none available
system.cpu.iq.fu_full::SimdFloatMisc                0      0.00%     46.67% # attempts to use FU when none available
system.cpu.iq.fu_full::SimdFloatMult                0      0.00%     46.67% # attempts to use FU when none available
system.cpu.iq.fu_full::SimdFloatMultAcc             0      0.00%     46.67% # attempts to use FU when none available
system.cpu.iq.fu_full::SimdFloatSqrt                0      0.00%     46.67% # attempts to use FU when none available
system.cpu.iq.fu_full::SimdReduceAdd                0      0.00%     46.67% # attempts to use FU when none available
system.cpu.iq.fu_full::SimdReduceAlu                0      0.00%     46.67% # attempts to use FU when none available
system.cpu.iq.fu_full::SimdReduceCmp                0      0.00%     46.67% # attempts to use FU when none available
system.cpu.iq.fu_full::SimdFloatReduceAdd            0      0.00%     46.67% # attempts to use FU when none available
system.cpu.iq.fu_full::SimdFloatReduceCmp            0      0.00%     46.67% # attempts to use FU when none available
system.cpu.iq.fu_full::SimdAes                      0      0.00%     46.67% # attempts to use FU when none available
system.cpu.iq.fu_full::SimdAesMix                   0      0.00%     46.67% # attempts to use FU when none available
system.cpu.iq.fu_full::SimdSha1Hash                 0      0.00%     46.67% # attempts to use FU when none available
system.cpu.iq.fu_full::SimdSha1Hash2                0      0.00%     46.67% # attempts to use FU when none available
system.cpu.iq.fu_full::SimdSha256Hash               0      0.00%     46.67% # attempts to use FU when none available
system.cpu.iq.fu_full::SimdSha256Hash2              0      0.00%     46.67% # attempts to use FU when none available
system.cpu.iq.fu_full::SimdShaSigma2                0      0.00%     46.67% # attempts to use FU when none available
system.cpu.iq.fu_full::SimdShaSigma3                0      0.00%     46.67% # attempts to use FU when none available
system.cpu.iq.fu_full::SimdPredAlu                  0      0.00%     46.67% # attempts to use FU when none available
system.cpu.iq.fu_full::MemRead                4354588     28.56%     75.23% # attempts to use FU when none available
system.cpu.iq.fu_full::MemWrite               3776908     24.77%    100.00% # attempts to use FU when none available
system.cpu.iq.fu_full::FloatMemRead                 0      0.00%    100.00% # attempts to use FU when none available
system.cpu.iq.fu_full::FloatMemWrite                0      0.00%    100.00% # attempts to use FU when none available
system.cpu.iq.fu_full::IprAccess                    0      0.00%    100.00% # attempts to use FU when none available
system.cpu.iq.fu_full::InstPrefetch                 0      0.00%    100.00% # attempts to use FU when none available
system.cpu.iq.int_alu_accesses              577192015                       # Number of integer alu accesses
system.cpu.iq.int_inst_queue_reads         1393913690                       # Number of integer instruction queue reads
system.cpu.iq.int_inst_queue_wakeup_accesses    554983466                       # Number of integer instruction queue wakeup accesses
system.cpu.iq.int_inst_queue_writes         571804662                       # Number of integer instruction queue writes
system.cpu.iq.iqInstsAdded                  570825531                       # Number of instructions added to the IQ (excludes non-spec)
system.cpu.iq.iqInstsIssued                 575693562                       # Number of instructions issued
system.cpu.iq.iqNonSpecInstsAdded                 838                       # Number of non-speculative instructions added to the IQ
system.cpu.iq.iqSquashedInstsExamined        13347601                       # Number of squashed instructions iterated over during squash; mainly for profiling
system.cpu.iq.iqSquashedInstsIssued             26466                       # Number of squashed instructions issued
system.cpu.iq.iqSquashedNonSpecRemoved            361                       # Number of squashed non-spec instructions that were removed
system.cpu.iq.iqSquashedOperandsExamined      6239700                       # Number of squashed operands that are examined and possibly removed from graph
system.cpu.iq.issued_per_cycle::samples     253649960                       # Number of insts issued each cycle
system.cpu.iq.issued_per_cycle::mean         2.269638                       # Number of insts issued each cycle
system.cpu.iq.issued_per_cycle::stdev        2.396211                       # Number of insts issued each cycle
system.cpu.iq.issued_per_cycle::underflows            0      0.00%      0.00% # Number of insts issued each cycle
system.cpu.iq.issued_per_cycle::0            93852207     37.00%     37.00% # Number of insts issued each cycle
system.cpu.iq.issued_per_cycle::1            31549151     12.44%     49.44% # Number of insts issued each cycle
system.cpu.iq.issued_per_cycle::2            27639157     10.90%     60.34% # Number of insts issued each cycle
system.cpu.iq.issued_per_cycle::3            25707162     10.13%     70.47% # Number of insts issued each cycle
system.cpu.iq.issued_per_cycle::4            22233787      8.77%     79.24% # Number of insts issued each cycle
system.cpu.iq.issued_per_cycle::5            18254984      7.20%     86.43% # Number of insts issued each cycle
system.cpu.iq.issued_per_cycle::6            15791755      6.23%     92.66% # Number of insts issued each cycle
system.cpu.iq.issued_per_cycle::7            12190043      4.81%     97.46% # Number of insts issued each cycle
system.cpu.iq.issued_per_cycle::8             6431714      2.54%    100.00% # Number of insts issued each cycle
system.cpu.iq.issued_per_cycle::overflows            0      0.00%    100.00% # Number of insts issued each cycle
system.cpu.iq.issued_per_cycle::min_value            0                       # Number of insts issued each cycle
system.cpu.iq.issued_per_cycle::max_value            8                       # Number of insts issued each cycle
system.cpu.iq.issued_per_cycle::total       253649960                       # Number of insts issued each cycle
system.cpu.iq.rate                           2.268893                       # Inst issue rate
system.cpu.iq.vec_alu_accesses               13538537                       # Number of vector alu accesses
system.cpu.iq.vec_inst_queue_reads           26397473                       # Number of vector instruction queue reads
system.cpu.iq.vec_inst_queue_wakeup_accesses     11992032                       # Number of vector instruction queue wakeup accesses
system.cpu.iq.vec_inst_queue_writes          12372446                       # Number of vector instruction queue writes
system.cpu.memDep0.conflictingLoads           2395884                       # Number of conflicting loads.
system.cpu.memDep0.conflictingStores          1560241                       # Number of conflicting stores.
system.cpu.memDep0.insertedLoads             84225936                       # Number of loads inserted to the mem dependence unit.
system.cpu.memDep0.insertedStores            78977244                       # Number of stores inserted to the mem dependence unit.
system.cpu.misc_regfile_reads              1243568537                       # number of misc regfile reads
system.cpu.misc_regfile_writes                     71                       # number of misc regfile writes
system.cpu.numCycles                        253733226                       # number of cpu cycles simulated
system.cpu.numWorkItemsCompleted                    0                       # number of work items this cpu completed
system.cpu.numWorkItemsStarted                      0                       # number of work items this cpu started
system.cpu.pred_regfile_reads                 1263467                       # number of predicate regfile reads
system.cpu.pred_regfile_writes                 421166                       # number of predicate regfile writes
system.cpu.timesIdled                             744                       # Number of times that the entire CPU went into an idle state and unscheduled itself
system.cpu.vec_regfile_reads                 10737405                       # number of vector regfile reads
system.cpu.vec_regfile_writes                 3608068                       # number of vector regfile writes
system.cpu.workload.numSyscalls                   420                       # Number of system calls
system.l2.MSHRs.leapFrogMisses                      0                       # number of false blocks from MSHR
system.membus.snoop_filter.hit_multi_requests            0                       # Number of requests hitting in the snoop filter with multiple (>1) holders of the requested data.
system.membus.snoop_filter.hit_multi_snoops            0                       # Number of snoops hitting in the snoop filter with multiple (>1) holders of the requested data.
system.membus.snoop_filter.hit_single_requests       462580                       # Number of requests hitting in the snoop filter with a single holder of the requested data.
system.membus.snoop_filter.hit_single_snoops            0                       # Number of snoops hitting in the snoop filter with a single holder of the requested data.
system.membus.snoop_filter.tot_requests        999935                       # Total number of requests made to the snoop filter.
system.membus.snoop_filter.tot_snoops               0                       # Total number of snoops made to the snoop filter.
system.tol2bus.snoop_filter.hit_multi_requests            1                       # Number of requests hitting in the snoop filter with multiple (>1) holders of the requested data.
system.tol2bus.snoop_filter.hit_multi_snoops            0                       # Number of snoops hitting in the snoop filter with multiple (>1) holders of the requested data.
system.tol2bus.snoop_filter.hit_single_requests       843011                       # Number of requests hitting in the snoop filter with a single holder of the requested data.
system.tol2bus.snoop_filter.hit_single_snoops           26                       # Number of snoops hitting in the snoop filter with a single holder of the requested data.
system.tol2bus.snoop_filter.tot_requests      1533732                       # Total number of requests made to the snoop filter.
system.tol2bus.snoop_filter.tot_snoops             26                       # Total number of snoops made to the snoop filter.
system.clk_domain.clock                          1000                       # Clock period in ticks
system.cpu.branchPred.lookups               106942506                       # Number of BP lookups
system.cpu.branchPred.condPredicted          88029433                       # Number of conditional branches predicted
system.cpu.branchPred.condIncorrect            511422                       # Number of conditional branches incorrect
system.cpu.branchPred.BTBLookups             40814729                       # Number of BTB lookups
system.cpu.branchPred.BTBHits                40813779                       # Number of BTB hits
system.cpu.branchPred.BTBHitPct             99.997672                       # BTB Hit Percentage
system.cpu.branchPred.RASUsed                 4722218                       # Number of times the RAS was used to get a target.
system.cpu.branchPred.RASIncorrect                  7                       # Number of incorrect RAS predictions.
system.cpu.branchPred.indirectLookups         1250473                       # Number of indirect predictor lookups.
system.cpu.branchPred.indirectHits            1250216                       # Number of indirect target hits.
system.cpu.branchPred.indirectMisses              257                       # Number of indirect misses.
system.cpu.branchPred.indirectMispredicted           81                       # Number of mispredicted indirect branches.
system.cpu.commit.commitSquashedInsts        13243864                       # The number of squashed insts skipped by commit
system.cpu.commit.commitNonSpecStalls             477                       # The number of times commit has been forced to stall to communicate backwards
system.cpu.commit.branchMispredicts            511123                       # The number of times a branch was mispredicted
system.cpu.commit.numCommittedDist::samples    251787211                       # Number of insts commited each cycle
system.cpu.commit.numCommittedDist::mean     2.219835                       # Number of insts commited each cycle
system.cpu.commit.numCommittedDist::stdev     2.853762                       # Number of insts commited each cycle
system.cpu.commit.numCommittedDist::underflows            0      0.00%      0.00% # Number of insts commited each cycle
system.cpu.commit.numCommittedDist::0       110575457     43.92%     43.92% # Number of insts commited each cycle
system.cpu.commit.numCommittedDist::1        40919692     16.25%     60.17% # Number of insts commited each cycle
system.cpu.commit.numCommittedDist::2        19342939      7.68%     67.85% # Number of insts commited each cycle
system.cpu.commit.numCommittedDist::3        16993191      6.75%     74.60% # Number of insts commited each cycle
system.cpu.commit.numCommittedDist::4         9033660      3.59%     78.19% # Number of insts commited each cycle
system.cpu.commit.numCommittedDist::5         8826573      3.51%     81.69% # Number of insts commited each cycle
system.cpu.commit.numCommittedDist::6         7547335      3.00%     84.69% # Number of insts commited each cycle
system.cpu.commit.numCommittedDist::7         5597616      2.22%     86.91% # Number of insts commited each cycle
system.cpu.commit.numCommittedDist::8        32950748     13.09%    100.00% # Number of insts commited each cycle
system.cpu.commit.numCommittedDist::overflows            0      0.00%    100.00% # Number of insts commited each cycle
system.cpu.commit.numCommittedDist::min_value            0                       # Number of insts commited each cycle
system.cpu.commit.numCommittedDist::max_value            8                       # Number of insts commited each cycle
system.cpu.commit.numCommittedDist::total    251787211                       # Number of insts commited each cycle
system.cpu.commit.instsCommitted            501447231                       # Number of instructions committed
system.cpu.commit.opsCommitted              558925954                       # Number of ops (including micro ops) committed
system.cpu.commit.memRefs                   160849977                       # Number of memory references committed
system.cpu.commit.loads                      82566321                       # Number of loads committed
system.cpu.commit.amos                             22                       # Number of atomic instructions committed
system.cpu.commit.membars                          29                       # Number of memory barriers committed
system.cpu.commit.branches                  102242838                       # Number of branches committed
system.cpu.commit.vector                     11875182                       # Number of committed Vector instructions.
system.cpu.commit.floating                          0                       # Number of committed floating point instructions.
system.cpu.commit.integer                   490737662                       # Number of committed integer instructions.
system.cpu.commit.functionCalls               4604472                       # Number of function calls committed.
system.cpu.commit.committedInstType_0::No_OpClass       210607      0.04%      0.04% # Class of committed instruction
system.cpu.commit.committedInstType_0::IntAlu    391537005     70.05%     70.09% # Class of committed instruction
system.cpu.commit.committedInstType_0::IntMult      3425769      0.61%     70.70% # Class of committed instruction
system.cpu.commit.committedInstType_0::IntDiv       260508      0.05%     70.75% # Class of committed instruction
system.cpu.commit.committedInstType_0::FloatAdd            0      0.00%     70.75% # Class of committed instruction
system.cpu.commit.committedInstType_0::FloatCmp            0      0.00%     70.75% # Class of committed instruction
system.cpu.commit.committedInstType_0::FloatCvt            2      0.00%     70.75% # Class of committed instruction
system.cpu.commit.committedInstType_0::FloatMult            2      0.00%     70.75% # Class of committed instruction
system.cpu.commit.committedInstType_0::FloatMultAcc            0      0.00%     70.75% # Class of committed instruction
system.cpu.commit.committedInstType_0::FloatDiv            0      0.00%     70.75% # Class of committed instruction
system.cpu.commit.committedInstType_0::FloatMisc       593613      0.11%     70.86% # Class of committed instruction
system.cpu.commit.committedInstType_0::FloatSqrt            0      0.00%     70.86% # Class of committed instruction
system.cpu.commit.committedInstType_0::SimdAdd            1      0.00%     70.86% # Class of committed instruction
system.cpu.commit.committedInstType_0::SimdAddAcc            0      0.00%     70.86% # Class of committed instruction
system.cpu.commit.committedInstType_0::SimdAlu       210585      0.04%     70.89% # Class of committed instruction
system.cpu.commit.committedInstType_0::SimdCmp      1014792      0.18%     71.07% # Class of committed instruction
system.cpu.commit.committedInstType_0::SimdCvt            2      0.00%     71.07% # Class of committed instruction
system.cpu.commit.committedInstType_0::SimdMisc       420816      0.08%     71.15% # Class of committed instruction
system.cpu.commit.committedInstType_0::SimdMult            0      0.00%     71.15% # Class of committed instruction
system.cpu.commit.committedInstType_0::SimdMultAcc            0      0.00%     71.15% # Class of committed instruction
system.cpu.commit.committedInstType_0::SimdShift       402275      0.07%     71.22% # Class of committed instruction
system.cpu.commit.committedInstType_0::SimdShiftAcc            0      0.00%     71.22% # Class of committed instruction
system.cpu.commit.committedInstType_0::SimdDiv            0      0.00%     71.22% # Class of committed instruction
system.cpu.commit.committedInstType_0::SimdSqrt            0      0.00%     71.22% # Class of committed instruction
system.cpu.commit.committedInstType_0::SimdFloatAdd            0      0.00%     71.22% # Class of committed instruction
system.cpu.commit.committedInstType_0::SimdFloatAlu            0      0.00%     71.22% # Class of committed instruction
system.cpu.commit.committedInstType_0::SimdFloatCmp            0      0.00%     71.22% # Class of committed instruction
system.cpu.commit.committedInstType_0::SimdFloatCvt            0      0.00%     71.22% # Class of committed instruction
system.cpu.commit.committedInstType_0::SimdFloatDiv            0      0.00%     71.22% # Class of committed instruction
system.cpu.commit.committedInstType_0::SimdFloatMisc            0      0.00%     71.22% # Class of committed instruction
system.cpu.commit.committedInstType_0::SimdFloatMult            0      0.00%     71.22% # Class of committed instruction
system.cpu.commit.committedInstType_0::SimdFloatMultAcc            0      0.00%     71.22% # Class of committed instruction
system.cpu.commit.committedInstType_0::SimdFloatSqrt            0      0.00%     71.22% # Class of committed instruction
system.cpu.commit.committedInstType_0::SimdReduceAdd            0      0.00%     71.22% # Class of committed instruction
system.cpu.commit.committedInstType_0::SimdReduceAlu            0      0.00%     71.22% # Class of committed instruction
system.cpu.commit.committedInstType_0::SimdReduceCmp            0      0.00%     71.22% # Class of committed instruction
system.cpu.commit.committedInstType_0::SimdFloatReduceAdd            0      0.00%     71.22% # Class of committed instruction
system.cpu.commit.committedInstType_0::SimdFloatReduceCmp            0      0.00%     71.22% # Class of committed instruction
system.cpu.commit.committedInstType_0::SimdAes            0      0.00%     71.22% # Class of committed instruction
system.cpu.commit.committedInstType_0::SimdAesMix            0      0.00%     71.22% # Class of committed instruction
system.cpu.commit.committedInstType_0::SimdSha1Hash            0      0.00%     71.22% # Class of committed instruction
system.cpu.commit.committedInstType_0::SimdSha1Hash2            0      0.00%     71.22% # Class of committed instruction
system.cpu.commit.committedInstType_0::SimdSha256Hash            0      0.00%     71.22% # Class of committed instruction
system.cpu.commit.committedInstType_0::SimdSha256Hash2            0      0.00%     71.22% # Class of committed instruction
system.cpu.commit.committedInstType_0::SimdShaSigma2            0      0.00%     71.22% # Class of committed instruction
system.cpu.commit.committedInstType_0::SimdShaSigma3            0      0.00%     71.22% # Class of committed instruction
system.cpu.commit.committedInstType_0::SimdPredAlu            0      0.00%     71.22% # Class of committed instruction
system.cpu.commit.committedInstType_0::MemRead     82566321     14.77%     85.99% # Class of committed instruction
system.cpu.commit.committedInstType_0::MemWrite     78283656     14.01%    100.00% # Class of committed instruction
system.cpu.commit.committedInstType_0::FloatMemRead            0      0.00%    100.00% # Class of committed instruction
system.cpu.commit.committedInstType_0::FloatMemWrite            0      0.00%    100.00% # Class of committed instruction
system.cpu.commit.committedInstType_0::IprAccess            0      0.00%    100.00% # Class of committed instruction
system.cpu.commit.committedInstType_0::InstPrefetch            0      0.00%    100.00% # Class of committed instruction
system.cpu.commit.committedInstType_0::total    558925954                       # Class of committed instruction
system.cpu.commit.commitEligibleSamples      32950748                       # number cycles where commit BW limit reached
system.cpu.dcache.demand_hits::.cpu.data    155284682                       # number of demand (read+write) hits
system.cpu.dcache.demand_hits::total        155284682                       # number of demand (read+write) hits
system.cpu.dcache.overall_hits::.cpu.data    155284682                       # number of overall hits
system.cpu.dcache.overall_hits::total       155284682                       # number of overall hits
system.cpu.dcache.demand_misses::.cpu.data      1692295                       # number of demand (read+write) misses
system.cpu.dcache.demand_misses::total        1692295                       # number of demand (read+write) misses
system.cpu.dcache.overall_misses::.cpu.data      1692295                       # number of overall misses
system.cpu.dcache.overall_misses::total       1692295                       # number of overall misses
system.cpu.dcache.demand_miss_latency::.cpu.data 114589239678                       # number of demand (read+write) miss cycles
system.cpu.dcache.demand_miss_latency::total 114589239678                       # number of demand (read+write) miss cycles
system.cpu.dcache.overall_miss_latency::.cpu.data 114589239678                       # number of overall miss cycles
system.cpu.dcache.overall_miss_latency::total 114589239678                       # number of overall miss cycles
system.cpu.dcache.demand_accesses::.cpu.data    156976977                       # number of demand (read+write) accesses
system.cpu.dcache.demand_accesses::total    156976977                       # number of demand (read+write) accesses
system.cpu.dcache.overall_accesses::.cpu.data    156976977                       # number of overall (read+write) accesses
system.cpu.dcache.overall_accesses::total    156976977                       # number of overall (read+write) accesses
system.cpu.dcache.demand_miss_rate::.cpu.data     0.010781                       # miss rate for demand accesses
system.cpu.dcache.demand_miss_rate::total     0.010781                       # miss rate for demand accesses
system.cpu.dcache.overall_miss_rate::.cpu.data     0.010781                       # miss rate for overall accesses
system.cpu.dcache.overall_miss_rate::total     0.010781                       # miss rate for overall accesses
system.cpu.dcache.demand_avg_miss_latency::.cpu.data 67712.331289                       # average overall miss latency
system.cpu.dcache.demand_avg_miss_latency::total 67712.331289                       # average overall miss latency
system.cpu.dcache.overall_avg_miss_latency::.cpu.data 67712.331289                       # average overall miss latency
system.cpu.dcache.overall_avg_miss_latency::total 67712.331289                       # average overall miss latency
system.cpu.dcache.blocked_cycles::no_mshrs      2698413                       # number of cycles access was blocked
system.cpu.dcache.blocked_cycles::no_targets            0                       # number of cycles access was blocked
system.cpu.dcache.blocked::no_mshrs             65205                       # number of cycles access was blocked
system.cpu.dcache.blocked::no_targets               0                       # number of cycles access was blocked
system.cpu.dcache.avg_blocked_cycles::no_mshrs    41.383529                       # average number of cycles each access was blocked
system.cpu.dcache.avg_blocked_cycles::no_targets          nan                       # average number of cycles each access was blocked
system.cpu.dcache.ghost_timestamp_misses          391                       # number of times timestamp policy causes a block to be inaccessible
system.cpu.dcache.ghost_commits                205422                       # number of cache lines moved from ghost to main
system.cpu.dcache.same_leapfrogs                  541                       # number of times leapfrogging occurs with a shared MSHR request
system.cpu.dcache.writebacks::.writebacks       769770                       # number of writebacks
system.cpu.dcache.writebacks::total            769770                       # number of writebacks
system.cpu.dcache.demand_mshr_hits::.cpu.data       849913                       # number of demand (read+write) MSHR hits
system.cpu.dcache.demand_mshr_hits::total       849913                       # number of demand (read+write) MSHR hits
system.cpu.dcache.overall_mshr_hits::.cpu.data       849913                       # number of overall MSHR hits
system.cpu.dcache.overall_mshr_hits::total       849913                       # number of overall MSHR hits
system.cpu.dcache.demand_mshr_misses::.cpu.data       842382                       # number of demand (read+write) MSHR misses
system.cpu.dcache.demand_mshr_misses::total       842382                       # number of demand (read+write) MSHR misses
system.cpu.dcache.overall_mshr_misses::.cpu.data       842382                       # number of overall MSHR misses
system.cpu.dcache.overall_mshr_misses::total       842382                       # number of overall MSHR misses
system.cpu.dcache.demand_mshr_miss_latency::.cpu.data  50409689953                       # number of demand (read+write) MSHR miss cycles
system.cpu.dcache.demand_mshr_miss_latency::total  50409689953                       # number of demand (read+write) MSHR miss cycles
system.cpu.dcache.overall_mshr_miss_latency::.cpu.data  50409689953                       # number of overall MSHR miss cycles
system.cpu.dcache.overall_mshr_miss_latency::total  50409689953                       # number of overall MSHR miss cycles
system.cpu.dcache.demand_mshr_miss_rate::.cpu.data     0.005366                       # mshr miss rate for demand accesses
system.cpu.dcache.demand_mshr_miss_rate::total     0.005366                       # mshr miss rate for demand accesses
system.cpu.dcache.overall_mshr_miss_rate::.cpu.data     0.005366                       # mshr miss rate for overall accesses
system.cpu.dcache.overall_mshr_miss_rate::total     0.005366                       # mshr miss rate for overall accesses
system.cpu.dcache.demand_avg_mshr_miss_latency::.cpu.data 59841.841294                       # average overall mshr miss latency
system.cpu.dcache.demand_avg_mshr_miss_latency::total 59841.841294                       # average overall mshr miss latency
system.cpu.dcache.overall_avg_mshr_miss_latency::.cpu.data 59841.841294                       # average overall mshr miss latency
system.cpu.dcache.overall_avg_mshr_miss_latency::total 59841.841294                       # average overall mshr miss latency
system.cpu.dcache.replacements                 564351                       # number of replacements
system.cpu.dcache.ReadReq_hits::.cpu.data     78432483                       # number of ReadReq hits
system.cpu.dcache.ReadReq_hits::total        78432483                       # number of ReadReq hits
system.cpu.dcache.ReadReq_misses::.cpu.data       381652                       # number of ReadReq misses
system.cpu.dcache.ReadReq_misses::total        381652                       # number of ReadReq misses
system.cpu.dcache.ReadReq_miss_latency::.cpu.data  19054411000                       # number of ReadReq miss cycles
system.cpu.dcache.ReadReq_miss_latency::total  19054411000                       # number of ReadReq miss cycles
system.cpu.dcache.ReadReq_accesses::.cpu.data     78814135                       # number of ReadReq accesses(hits+misses)
system.cpu.dcache.ReadReq_accesses::total     78814135                       # number of ReadReq accesses(hits+misses)
system.cpu.dcache.ReadReq_miss_rate::.cpu.data     0.004842                       # miss rate for ReadReq accesses
system.cpu.dcache.ReadReq_miss_rate::total     0.004842                       # miss rate for ReadReq accesses
system.cpu.dcache.ReadReq_avg_miss_latency::.cpu.data 49926.139520                       # average ReadReq miss latency
system.cpu.dcache.ReadReq_avg_miss_latency::total 49926.139520                       # average ReadReq miss latency
system.cpu.dcache.ReadReq_mshr_hits::.cpu.data        50489                       # number of ReadReq MSHR hits
system.cpu.dcache.ReadReq_mshr_hits::total        50489                       # number of ReadReq MSHR hits
system.cpu.dcache.ReadReq_mshr_misses::.cpu.data       331163                       # number of ReadReq MSHR misses
system.cpu.dcache.ReadReq_mshr_misses::total       331163                       # number of ReadReq MSHR misses
system.cpu.dcache.ReadReq_mshr_miss_latency::.cpu.data  17048182000                       # number of ReadReq MSHR miss cycles
system.cpu.dcache.ReadReq_mshr_miss_latency::total  17048182000                       # number of ReadReq MSHR miss cycles
system.cpu.dcache.ReadReq_mshr_miss_rate::.cpu.data     0.004202                       # mshr miss rate for ReadReq accesses
system.cpu.dcache.ReadReq_mshr_miss_rate::total     0.004202                       # mshr miss rate for ReadReq accesses
system.cpu.dcache.ReadReq_avg_mshr_miss_latency::.cpu.data 51479.730525                       # average ReadReq mshr miss latency
system.cpu.dcache.ReadReq_avg_mshr_miss_latency::total 51479.730525                       # average ReadReq mshr miss latency
system.cpu.dcache.WriteReq_hits::.cpu.data     76852199                       # number of WriteReq hits
system.cpu.dcache.WriteReq_hits::total       76852199                       # number of WriteReq hits
system.cpu.dcache.WriteReq_misses::.cpu.data      1310627                       # number of WriteReq misses
system.cpu.dcache.WriteReq_misses::total      1310627                       # number of WriteReq misses
system.cpu.dcache.WriteReq_miss_latency::.cpu.data  95534312685                       # number of WriteReq miss cycles
system.cpu.dcache.WriteReq_miss_latency::total  95534312685                       # number of WriteReq miss cycles
system.cpu.dcache.WriteReq_accesses::.cpu.data     78162826                       # number of WriteReq accesses(hits+misses)
system.cpu.dcache.WriteReq_accesses::total     78162826                       # number of WriteReq accesses(hits+misses)
system.cpu.dcache.WriteReq_miss_rate::.cpu.data     0.016768                       # miss rate for WriteReq accesses
system.cpu.dcache.WriteReq_miss_rate::total     0.016768                       # miss rate for WriteReq accesses
system.cpu.dcache.WriteReq_avg_miss_latency::.cpu.data 72892.068212                       # average WriteReq miss latency
system.cpu.dcache.WriteReq_avg_miss_latency::total 72892.068212                       # average WriteReq miss latency
system.cpu.dcache.WriteReq_mshr_hits::.cpu.data       799424                       # number of WriteReq MSHR hits
system.cpu.dcache.WriteReq_mshr_hits::total       799424                       # number of WriteReq MSHR hits
system.cpu.dcache.WriteReq_mshr_misses::.cpu.data       511203                       # number of WriteReq MSHR misses
system.cpu.dcache.WriteReq_mshr_misses::total       511203                       # number of WriteReq MSHR misses
system.cpu.dcache.WriteReq_mshr_miss_latency::.cpu.data  33361007960                       # number of WriteReq MSHR miss cycles
system.cpu.dcache.WriteReq_mshr_miss_latency::total  33361007960                       # number of WriteReq MSHR miss cycles
system.cpu.dcache.WriteReq_mshr_miss_rate::.cpu.data     0.006540                       # mshr miss rate for WriteReq accesses
system.cpu.dcache.WriteReq_mshr_miss_rate::total     0.006540                       # mshr miss rate for WriteReq accesses
system.cpu.dcache.WriteReq_avg_mshr_miss_latency::.cpu.data 65259.804735                       # average WriteReq mshr miss latency
system.cpu.dcache.WriteReq_avg_mshr_miss_latency::total 65259.804735                       # average WriteReq mshr miss latency
system.cpu.dcache.WriteLineReq_misses::.cpu.data           16                       # number of WriteLineReq misses
system.cpu.dcache.WriteLineReq_misses::total           16                       # number of WriteLineReq misses
system.cpu.dcache.WriteLineReq_miss_latency::.cpu.data       515993                       # number of WriteLineReq miss cycles
system.cpu.dcache.WriteLineReq_miss_latency::total       515993                       # number of WriteLineReq miss cycles
system.cpu.dcache.WriteLineReq_accesses::.cpu.data           16                       # number of WriteLineReq accesses(hits+misses)
system.cpu.dcache.WriteLineReq_accesses::total           16                       # number of WriteLineReq accesses(hits+misses)
system.cpu.dcache.WriteLineReq_miss_rate::.cpu.data            1                       # miss rate for WriteLineReq accesses
system.cpu.dcache.WriteLineReq_miss_rate::total            1                       # miss rate for WriteLineReq accesses
system.cpu.dcache.WriteLineReq_avg_miss_latency::.cpu.data 32249.562500                       # average WriteLineReq miss latency
system.cpu.dcache.WriteLineReq_avg_miss_latency::total 32249.562500                       # average WriteLineReq miss latency
system.cpu.dcache.WriteLineReq_mshr_misses::.cpu.data           16                       # number of WriteLineReq MSHR misses
system.cpu.dcache.WriteLineReq_mshr_misses::total           16                       # number of WriteLineReq MSHR misses
system.cpu.dcache.WriteLineReq_mshr_miss_latency::.cpu.data       499993                       # number of WriteLineReq MSHR miss cycles
system.cpu.dcache.WriteLineReq_mshr_miss_latency::total       499993                       # number of WriteLineReq MSHR miss cycles
system.cpu.dcache.WriteLineReq_mshr_miss_rate::.cpu.data            1                       # mshr miss rate for WriteLineReq accesses
system.cpu.dcache.WriteLineReq_mshr_miss_rate::total            1                       # mshr miss rate for WriteLineReq accesses
system.cpu.dcache.WriteLineReq_avg_mshr_miss_latency::.cpu.data 31249.562500                       # average WriteLineReq mshr miss latency
system.cpu.dcache.WriteLineReq_avg_mshr_miss_latency::total 31249.562500                       # average WriteLineReq mshr miss latency
system.cpu.dcache.LoadLockedReq_hits::.cpu.data            6                       # number of LoadLockedReq hits
system.cpu.dcache.LoadLockedReq_hits::total            6                       # number of LoadLockedReq hits
system.cpu.dcache.LoadLockedReq_misses::.cpu.data            1                       # number of LoadLockedReq misses
system.cpu.dcache.LoadLockedReq_misses::total            1                       # number of LoadLockedReq misses
system.cpu.dcache.LoadLockedReq_miss_latency::.cpu.data        74500                       # number of LoadLockedReq miss cycles
system.cpu.dcache.LoadLockedReq_miss_latency::total        74500                       # number of LoadLockedReq miss cycles
system.cpu.dcache.LoadLockedReq_accesses::.cpu.data            7                       # number of LoadLockedReq accesses(hits+misses)
system.cpu.dcache.LoadLockedReq_accesses::total            7                       # number of LoadLockedReq accesses(hits+misses)
system.cpu.dcache.LoadLockedReq_miss_rate::.cpu.data     0.142857                       # miss rate for LoadLockedReq accesses
system.cpu.dcache.LoadLockedReq_miss_rate::total     0.142857                       # miss rate for LoadLockedReq accesses
system.cpu.dcache.LoadLockedReq_avg_miss_latency::.cpu.data        74500                       # average LoadLockedReq miss latency
system.cpu.dcache.LoadLockedReq_avg_miss_latency::total        74500                       # average LoadLockedReq miss latency
system.cpu.dcache.LoadLockedReq_mshr_misses::.cpu.data            1                       # number of LoadLockedReq MSHR misses
system.cpu.dcache.LoadLockedReq_mshr_misses::total            1                       # number of LoadLockedReq MSHR misses
system.cpu.dcache.LoadLockedReq_mshr_miss_latency::.cpu.data        73500                       # number of LoadLockedReq MSHR miss cycles
system.cpu.dcache.LoadLockedReq_mshr_miss_latency::total        73500                       # number of LoadLockedReq MSHR miss cycles
system.cpu.dcache.LoadLockedReq_mshr_miss_rate::.cpu.data     0.142857                       # mshr miss rate for LoadLockedReq accesses
system.cpu.dcache.LoadLockedReq_mshr_miss_rate::total     0.142857                       # mshr miss rate for LoadLockedReq accesses
system.cpu.dcache.LoadLockedReq_avg_mshr_miss_latency::.cpu.data        73500                       # average LoadLockedReq mshr miss latency
system.cpu.dcache.LoadLockedReq_avg_mshr_miss_latency::total        73500                       # average LoadLockedReq mshr miss latency
system.cpu.dcache.StoreCondReq_hits::.cpu.data            4                       # number of StoreCondReq hits
system.cpu.dcache.StoreCondReq_hits::total            4                       # number of StoreCondReq hits
system.cpu.dcache.StoreCondReq_misses::.cpu.data            1                       # number of StoreCondReq misses
system.cpu.dcache.StoreCondReq_misses::total            1                       # number of StoreCondReq misses
system.cpu.dcache.StoreCondReq_miss_latency::.cpu.data        31000                       # number of StoreCondReq miss cycles
system.cpu.dcache.StoreCondReq_miss_latency::total        31000                       # number of StoreCondReq miss cycles
system.cpu.dcache.StoreCondReq_accesses::.cpu.data            5                       # number of StoreCondReq accesses(hits+misses)
system.cpu.dcache.StoreCondReq_accesses::total            5                       # number of StoreCondReq accesses(hits+misses)
system.cpu.dcache.StoreCondReq_miss_rate::.cpu.data     0.200000                       # miss rate for StoreCondReq accesses
system.cpu.dcache.StoreCondReq_miss_rate::total     0.200000                       # miss rate for StoreCondReq accesses
system.cpu.dcache.StoreCondReq_avg_miss_latency::.cpu.data        31000                       # average StoreCondReq miss latency
system.cpu.dcache.StoreCondReq_avg_miss_latency::total        31000                       # average StoreCondReq miss latency
system.cpu.dcache.StoreCondReq_mshr_misses::.cpu.data            1                       # number of StoreCondReq MSHR misses
system.cpu.dcache.StoreCondReq_mshr_misses::total            1                       # number of StoreCondReq MSHR misses
system.cpu.dcache.StoreCondReq_mshr_miss_latency::.cpu.data        30000                       # number of StoreCondReq MSHR miss cycles
system.cpu.dcache.StoreCondReq_mshr_miss_latency::total        30000                       # number of StoreCondReq MSHR miss cycles
system.cpu.dcache.StoreCondReq_mshr_miss_rate::.cpu.data     0.200000                       # mshr miss rate for StoreCondReq accesses
system.cpu.dcache.StoreCondReq_mshr_miss_rate::total     0.200000                       # mshr miss rate for StoreCondReq accesses
system.cpu.dcache.StoreCondReq_avg_mshr_miss_latency::.cpu.data        30000                       # average StoreCondReq mshr miss latency
system.cpu.dcache.StoreCondReq_avg_mshr_miss_latency::total        30000                       # average StoreCondReq mshr miss latency
system.cpu.dcache.SwapReq_hits::.cpu.data           19                       # number of SwapReq hits
system.cpu.dcache.SwapReq_hits::total              19                       # number of SwapReq hits
system.cpu.dcache.SwapReq_misses::.cpu.data            3                       # number of SwapReq misses
system.cpu.dcache.SwapReq_misses::total             3                       # number of SwapReq misses
system.cpu.dcache.SwapReq_miss_latency::.cpu.data        76500                       # number of SwapReq miss cycles
system.cpu.dcache.SwapReq_miss_latency::total        76500                       # number of SwapReq miss cycles
system.cpu.dcache.SwapReq_accesses::.cpu.data           22                       # number of SwapReq accesses(hits+misses)
system.cpu.dcache.SwapReq_accesses::total           22                       # number of SwapReq accesses(hits+misses)
system.cpu.dcache.SwapReq_miss_rate::.cpu.data     0.136364                       # miss rate for SwapReq accesses
system.cpu.dcache.SwapReq_miss_rate::total     0.136364                       # miss rate for SwapReq accesses
system.cpu.dcache.SwapReq_avg_miss_latency::.cpu.data        25500                       # average SwapReq miss latency
system.cpu.dcache.SwapReq_avg_miss_latency::total        25500                       # average SwapReq miss latency
system.cpu.dcache.SwapReq_mshr_misses::.cpu.data            3                       # number of SwapReq MSHR misses
system.cpu.dcache.SwapReq_mshr_misses::total            3                       # number of SwapReq MSHR misses
system.cpu.dcache.SwapReq_mshr_miss_latency::.cpu.data        73500                       # number of SwapReq MSHR miss cycles
system.cpu.dcache.SwapReq_mshr_miss_latency::total        73500                       # number of SwapReq MSHR miss cycles
system.cpu.dcache.SwapReq_mshr_miss_rate::.cpu.data     0.136364                       # mshr miss rate for SwapReq accesses
system.cpu.dcache.SwapReq_mshr_miss_rate::total     0.136364                       # mshr miss rate for SwapReq accesses
system.cpu.dcache.SwapReq_avg_mshr_miss_latency::.cpu.data        24500                       # average SwapReq mshr miss latency
system.cpu.dcache.SwapReq_avg_mshr_miss_latency::total        24500                       # average SwapReq mshr miss latency
system.cpu.dcache.ghosttags.tagsinuse    -337638.444375                       # Cycle average of tags in use
system.cpu.dcache.ghosttags.total_refs              0                       # Total number of references to valid blocks.
system.cpu.dcache.ghosttags.sampled_refs            0                       # Sample count of references to valid blocks.
system.cpu.dcache.ghosttags.avg_refs              nan                       # Average number of references to valid blocks.
system.cpu.dcache.ghosttags.warmup_cycle       180500                       # Cycle when the warmup percentage was hit.
system.cpu.dcache.ghosttags.occ_blocks::.cpu.data 160255.345642                       # Average occupied blocks per requestor
system.cpu.dcache.ghosttags.occ_percent::.cpu.data  5007.979551                       # Average percentage of cache occupancy
system.cpu.dcache.ghosttags.occ_percent::total  5007.979551                       # Average percentage of cache occupancy
system.cpu.dcache.ghosttags.tag_accesses      3396213                       # Number of tag accesses
system.cpu.dcache.ghosttags.data_accesses      3396213                       # Number of data accesses
system.cpu.dcache.ghosttags.power_state.pwrStateResidencyTicks::UNDEFINED 126866612500                       # Cumulative time (in ticks) in various power states
system.cpu.dcache.power_state.pwrStateResidencyTicks::UNDEFINED 126866612500                       # Cumulative time (in ticks) in various power states
system.cpu.dcache.tags.tagsinuse         -159372.997583                       # Cycle average of tags in use
system.cpu.dcache.tags.total_refs           156342776                       # Total number of references to valid blocks.
system.cpu.dcache.tags.sampled_refs            895072                       # Sample count of references to valid blocks.
system.cpu.dcache.tags.avg_refs            174.670614                       # Average number of references to valid blocks.
system.cpu.dcache.tags.warmup_cycle            254500                       # Cycle when the warmup percentage was hit.
system.cpu.dcache.tags.occ_blocks::.cpu.data -159372.997583                       # Average occupied blocks per requestor
system.cpu.dcache.tags.occ_percent::.cpu.data  -311.275386                       # Average percentage of cache occupancy
system.cpu.dcache.tags.occ_percent::total  -311.275386                       # Average percentage of cache occupancy
system.cpu.dcache.tags.occ_task_id_blocks::1024          512                       # Occupied blocks per task id
system.cpu.dcache.tags.age_task_id_blocks_1024::0           46                       # Occupied blocks per task id
system.cpu.dcache.tags.age_task_id_blocks_1024::1          336                       # Occupied blocks per task id
system.cpu.dcache.tags.age_task_id_blocks_1024::2           82                       # Occupied blocks per task id
system.cpu.dcache.tags.age_task_id_blocks_1024::4           48                       # Occupied blocks per task id
system.cpu.dcache.tags.occ_task_id_percent::1024            1                       # Percentage of cache occupancy per task id
system.cpu.dcache.tags.tag_accesses        1256380948                       # Number of tag accesses
system.cpu.dcache.tags.data_accesses       1256380948                       # Number of data accesses
system.cpu.dcache.tags.power_state.pwrStateResidencyTicks::UNDEFINED 126866612500                       # Cumulative time (in ticks) in various power states
system.cpu.decode.idleCycles                 61681155                       # Number of cycles decode is idle
system.cpu.decode.blockedCycles              91363966                       # Number of cycles decode is blocked
system.cpu.decode.runCycles                  97591735                       # Number of cycles decode is running
system.cpu.decode.unblockCycles               2492719                       # Number of cycles decode is unblocking
system.cpu.decode.squashCycles                 520385                       # Number of cycles decode is squashing
system.cpu.decode.branchResolved             40591555                       # Number of times decode resolved a  branch
system.cpu.decode.branchMispred                   319                       # Number of times decode detected a branch misprediction
system.cpu.decode.decodedInsts              577888502                       # Number of instructions handled by decode
system.cpu.decode.squashedInsts                  1291                       # Number of squashed instructions handled by decode
system.cpu.dtb.instHits                             0                       # ITB inst hits
system.cpu.dtb.instMisses                           0                       # ITB inst misses
system.cpu.dtb.readHits                             0                       # DTB read hits
system.cpu.dtb.readMisses                           0                       # DTB read misses
system.cpu.dtb.writeHits                            0                       # DTB write hits
system.cpu.dtb.writeMisses                          0                       # DTB write misses
system.cpu.dtb.inserts                              0                       # Number of times an entry is inserted into the TLB
system.cpu.dtb.flushTlb                             0                       # Number of times complete TLB was flushed
system.cpu.dtb.flushTlbMva                          0                       # Number of times TLB was flushed by MVA
system.cpu.dtb.flushTlbMvaAsid                      0                       # Number of times TLB was flushed by MVA & ASID
system.cpu.dtb.flushTlbAsid                         0                       # Number of times TLB was flushed by ASID
system.cpu.dtb.flushedEntries                       0                       # Number of entries that have been flushed from TLB
system.cpu.dtb.alignFaults                          0                       # Number of TLB faults due to alignment restrictions
system.cpu.dtb.prefetchFaults                       0                       # Number of TLB faults due to prefetch
system.cpu.dtb.domainFaults                         0                       # Number of TLB faults due to domain restrictions
system.cpu.dtb.permsFaults                          0                       # Number of TLB faults due to permissions restrictions
system.cpu.dtb.readAccesses                         0                       # DTB read accesses
system.cpu.dtb.writeAccesses                        0                       # DTB write accesses
system.cpu.dtb.instAccesses                         0                       # ITB inst accesses
system.cpu.dtb.hits                                 0                       # Total TLB (inst and data) hits
system.cpu.dtb.misses                               0                       # Total TLB (inst and data) misses
system.cpu.dtb.accesses                             0                       # Total TLB (inst and data) accesses
system.cpu.dtb.stage2_mmu.stage2_tlb.instHits            0                       # ITB inst hits
system.cpu.dtb.stage2_mmu.stage2_tlb.instMisses            0                       # ITB inst misses
system.cpu.dtb.stage2_mmu.stage2_tlb.readHits            0                       # DTB read hits
system.cpu.dtb.stage2_mmu.stage2_tlb.readMisses            0                       # DTB read misses
system.cpu.dtb.stage2_mmu.stage2_tlb.writeHits            0                       # DTB write hits
system.cpu.dtb.stage2_mmu.stage2_tlb.writeMisses            0                       # DTB write misses
system.cpu.dtb.stage2_mmu.stage2_tlb.inserts            0                       # Number of times an entry is inserted into the TLB
system.cpu.dtb.stage2_mmu.stage2_tlb.flushTlb            0                       # Number of times complete TLB was flushed
system.cpu.dtb.stage2_mmu.stage2_tlb.flushTlbMva            0                       # Number of times TLB was flushed by MVA
system.cpu.dtb.stage2_mmu.stage2_tlb.flushTlbMvaAsid            0                       # Number of times TLB was flushed by MVA & ASID
system.cpu.dtb.stage2_mmu.stage2_tlb.flushTlbAsid            0                       # Number of times TLB was flushed by ASID
system.cpu.dtb.stage2_mmu.stage2_tlb.flushedEntries            0                       # Number of entries that have been flushed from TLB
system.cpu.dtb.stage2_mmu.stage2_tlb.alignFaults            0                       # Number of TLB faults due to alignment restrictions
system.cpu.dtb.stage2_mmu.stage2_tlb.prefetchFaults            0                       # Number of TLB faults due to prefetch
system.cpu.dtb.stage2_mmu.stage2_tlb.domainFaults            0                       # Number of TLB faults due to domain restrictions
system.cpu.dtb.stage2_mmu.stage2_tlb.permsFaults            0                       # Number of TLB faults due to permissions restrictions
system.cpu.dtb.stage2_mmu.stage2_tlb.readAccesses            0                       # DTB read accesses
system.cpu.dtb.stage2_mmu.stage2_tlb.writeAccesses            0                       # DTB write accesses
system.cpu.dtb.stage2_mmu.stage2_tlb.instAccesses            0                       # ITB inst accesses
system.cpu.dtb.stage2_mmu.stage2_tlb.hits            0                       # Total TLB (inst and data) hits
system.cpu.dtb.stage2_mmu.stage2_tlb.misses            0                       # Total TLB (inst and data) misses
system.cpu.dtb.stage2_mmu.stage2_tlb.accesses            0                       # Total TLB (inst and data) accesses
system.cpu.dtb.stage2_mmu.stage2_tlb.walker.walks            0                       # Table walker walks requested
system.cpu.dtb.stage2_mmu.stage2_tlb.walker.requestOrigin_Requested::Data            0                       # Table walker requests started/completed, data/inst
system.cpu.dtb.stage2_mmu.stage2_tlb.walker.requestOrigin_Requested::Inst            0                       # Table walker requests started/completed, data/inst
system.cpu.dtb.stage2_mmu.stage2_tlb.walker.requestOrigin_Requested::total            0                       # Table walker requests started/completed, data/inst
system.cpu.dtb.stage2_mmu.stage2_tlb.walker.requestOrigin_Completed::Data            0                       # Table walker requests started/completed, data/inst
system.cpu.dtb.stage2_mmu.stage2_tlb.walker.requestOrigin_Completed::Inst            0                       # Table walker requests started/completed, data/inst
system.cpu.dtb.stage2_mmu.stage2_tlb.walker.requestOrigin_Completed::total            0                       # Table walker requests started/completed, data/inst
system.cpu.dtb.stage2_mmu.stage2_tlb.walker.requestOrigin::total            0                       # Table walker requests started/completed, data/inst
system.cpu.dtb.stage2_mmu.stage2_tlb.walker.power_state.pwrStateResidencyTicks::UNDEFINED 126866612500                       # Cumulative time (in ticks) in various power states
system.cpu.dtb.walker.walks                         0                       # Table walker walks requested
system.cpu.dtb.walker.requestOrigin_Requested::Data            0                       # Table walker requests started/completed, data/inst
system.cpu.dtb.walker.requestOrigin_Requested::Inst            0                       # Table walker requests started/completed, data/inst
system.cpu.dtb.walker.requestOrigin_Requested::total            0                       # Table walker requests started/completed, data/inst
system.cpu.dtb.walker.requestOrigin_Completed::Data            0                       # Table walker requests started/completed, data/inst
system.cpu.dtb.walker.requestOrigin_Completed::Inst            0                       # Table walker requests started/completed, data/inst
system.cpu.dtb.walker.requestOrigin_Completed::total            0                       # Table walker requests started/completed, data/inst
system.cpu.dtb.walker.requestOrigin::total            0                       # Table walker requests started/completed, data/inst
system.cpu.dtb.walker.power_state.pwrStateResidencyTicks::UNDEFINED 126866612500                       # Cumulative time (in ticks) in various power states
system.cpu.fetch.icacheStallCycles           70308033                       # Number of cycles fetch is stalled on an Icache miss
system.cpu.fetch.insts                      520977256                       # Number of instructions fetch has processed
system.cpu.fetch.branches                   106942506                       # Number of branches that fetch encountered
system.cpu.fetch.predictedBranches           46786213                       # Number of branches that fetch has predicted taken
system.cpu.fetch.cycles                     182821088                       # Number of cycles fetch has run and was not squashing or blocked
system.cpu.fetch.squashCycles                 1041402                       # Number of cycles fetch has spent squashing
system.cpu.fetch.miscStallCycles                   20                       # Number of cycles fetch has spent waiting on interrupts,or bad addresses, or out of MSHRs
system.cpu.fetch.pendingTrapStallCycles           107                       # Number of stall cycles due to pending traps
system.cpu.fetch.icacheWaitRetryStallCycles           11                       # Number of stall cycles due to full MSHR
system.cpu.fetch.cacheLines                  69988101                       # Number of cache lines fetched
system.cpu.fetch.icacheSquashes                220425                       # Number of outstanding Icache misses that were squashed
system.cpu.fetch.nisnDist::samples          253649960                       # Number of instructions fetched each cycle (Total)
system.cpu.fetch.nisnDist::mean              2.286528                       # Number of instructions fetched each cycle (Total)
system.cpu.fetch.nisnDist::stdev             3.143689                       # Number of instructions fetched each cycle (Total)
system.cpu.fetch.nisnDist::underflows               0      0.00%      0.00% # Number of instructions fetched each cycle (Total)
system.cpu.fetch.nisnDist::0                147614591     58.20%     58.20% # Number of instructions fetched each cycle (Total)
system.cpu.fetch.nisnDist::1                  8600428      3.39%     61.59% # Number of instructions fetched each cycle (Total)
system.cpu.fetch.nisnDist::2                 10413337      4.11%     65.69% # Number of instructions fetched each cycle (Total)
system.cpu.fetch.nisnDist::3                  5533267      2.18%     67.87% # Number of instructions fetched each cycle (Total)
system.cpu.fetch.nisnDist::4                 19021284      7.50%     75.37% # Number of instructions fetched each cycle (Total)
system.cpu.fetch.nisnDist::5                  7311036      2.88%     78.26% # Number of instructions fetched each cycle (Total)
system.cpu.fetch.nisnDist::6                  7405532      2.92%     81.17% # Number of instructions fetched each cycle (Total)
system.cpu.fetch.nisnDist::7                  5126507      2.02%     83.20% # Number of instructions fetched each cycle (Total)
system.cpu.fetch.nisnDist::8                 42623978     16.80%    100.00% # Number of instructions fetched each cycle (Total)
system.cpu.fetch.nisnDist::overflows                0      0.00%    100.00% # Number of instructions fetched each cycle (Total)
system.cpu.fetch.nisnDist::min_value                0                       # Number of instructions fetched each cycle (Total)
system.cpu.fetch.nisnDist::max_value                8                       # Number of instructions fetched each cycle (Total)
system.cpu.fetch.nisnDist::total            253649960                       # Number of instructions fetched each cycle (Total)
system.cpu.fetch.branchRate                  0.421476                       # Number of branch fetches per cycle
system.cpu.fetch.rate                        2.053248                       # Number of inst fetches per cycle
system.cpu.icache.demand_hits::.cpu.inst     69986839                       # number of demand (read+write) hits
system.cpu.icache.demand_hits::total         69986839                       # number of demand (read+write) hits
system.cpu.icache.overall_hits::.cpu.inst     69986839                       # number of overall hits
system.cpu.icache.overall_hits::total        69986839                       # number of overall hits
system.cpu.icache.demand_misses::.cpu.inst         1262                       # number of demand (read+write) misses
system.cpu.icache.demand_misses::total           1262                       # number of demand (read+write) misses
system.cpu.icache.overall_misses::.cpu.inst         1262                       # number of overall misses
system.cpu.icache.overall_misses::total          1262                       # number of overall misses
system.cpu.icache.demand_miss_latency::.cpu.inst     91911500                       # number of demand (read+write) miss cycles
system.cpu.icache.demand_miss_latency::total     91911500                       # number of demand (read+write) miss cycles
system.cpu.icache.overall_miss_latency::.cpu.inst     91911500                       # number of overall miss cycles
system.cpu.icache.overall_miss_latency::total     91911500                       # number of overall miss cycles
system.cpu.icache.demand_accesses::.cpu.inst     69988101                       # number of demand (read+write) accesses
system.cpu.icache.demand_accesses::total     69988101                       # number of demand (read+write) accesses
system.cpu.icache.overall_accesses::.cpu.inst     69988101                       # number of overall (read+write) accesses
system.cpu.icache.overall_accesses::total     69988101                       # number of overall (read+write) accesses
system.cpu.icache.demand_miss_rate::.cpu.inst     0.000018                       # miss rate for demand accesses
system.cpu.icache.demand_miss_rate::total     0.000018                       # miss rate for demand accesses
system.cpu.icache.overall_miss_rate::.cpu.inst     0.000018                       # miss rate for overall accesses
system.cpu.icache.overall_miss_rate::total     0.000018                       # miss rate for overall accesses
system.cpu.icache.demand_avg_miss_latency::.cpu.inst 72830.031696                       # average overall miss latency
system.cpu.icache.demand_avg_miss_latency::total 72830.031696                       # average overall miss latency
system.cpu.icache.overall_avg_miss_latency::.cpu.inst 72830.031696                       # average overall miss latency
system.cpu.icache.overall_avg_miss_latency::total 72830.031696                       # average overall miss latency
system.cpu.icache.blocked_cycles::no_mshrs          358                       # number of cycles access was blocked
system.cpu.icache.blocked_cycles::no_targets            0                       # number of cycles access was blocked
system.cpu.icache.blocked::no_mshrs                 7                       # number of cycles access was blocked
system.cpu.icache.blocked::no_targets               0                       # number of cycles access was blocked
system.cpu.icache.avg_blocked_cycles::no_mshrs    51.142857                       # average number of cycles each access was blocked
system.cpu.icache.avg_blocked_cycles::no_targets          nan                       # average number of cycles each access was blocked
system.cpu.icache.ghost_timestamp_misses            0                       # number of times timestamp policy causes a block to be inaccessible
system.cpu.icache.ghost_commits                   535                       # number of cache lines moved from ghost to main
system.cpu.icache.same_leapfrogs                    0                       # number of times leapfrogging occurs with a shared MSHR request
system.cpu.icache.writebacks::.writebacks          604                       # number of writebacks
system.cpu.icache.writebacks::total               604                       # number of writebacks
system.cpu.icache.demand_mshr_hits::.cpu.inst          191                       # number of demand (read+write) MSHR hits
system.cpu.icache.demand_mshr_hits::total          191                       # number of demand (read+write) MSHR hits
system.cpu.icache.overall_mshr_hits::.cpu.inst          191                       # number of overall MSHR hits
system.cpu.icache.overall_mshr_hits::total          191                       # number of overall MSHR hits
system.cpu.icache.demand_mshr_misses::.cpu.inst         1071                       # number of demand (read+write) MSHR misses
[...]
system.mem_ctrls.dram.perBankWrBursts::0         8879                       # Per bank write bursts
system.mem_ctrls.dram.perBankWrBursts::1         8795                       # Per bank write bursts
system.mem_ctrls.dram.perBankWrBursts::2         8822                       # Per bank write bursts
system.mem_ctrls.dram.perBankWrBursts::3         9072                       # Per bank write bursts
system.mem_ctrls.dram.perBankWrBursts::4         8672                       # Per bank write bursts
system.mem_ctrls.dram.perBankWrBursts::5         9047                       # Per bank write bursts
system.mem_ctrls.dram.perBankWrBursts::6         8660                       # Per bank write bursts
system.mem_ctrls.dram.perBankWrBursts::7         8719                       # Per bank write bursts
system.mem_ctrls.dram.perBankWrBursts::8         8888                       # Per bank write bursts
system.mem_ctrls.dram.perBankWrBursts::9         8610                       # Per bank write bursts
system.mem_ctrls.dram.perBankWrBursts::10         8950                       # Per bank write bursts
system.mem_ctrls.dram.perBankWrBursts::11         8736                       # Per bank write bursts
system.mem_ctrls.dram.perBankWrBursts::12         8824                       # Per bank write bursts
system.mem_ctrls.dram.perBankWrBursts::13         8846                       # Per bank write bursts
system.mem_ctrls.dram.perBankWrBursts::14         8634                       # Per bank write bursts
system.mem_ctrls.dram.perBankWrBursts::15         8954                       # Per bank write bursts
system.mem_ctrls.dram.perBankWrBursts::16         8886                       # Per bank write bursts
system.mem_ctrls.dram.perBankWrBursts::17         8883                       # Per bank write bursts
system.mem_ctrls.dram.perBankWrBursts::18         9010                       # Per bank write bursts
system.mem_ctrls.dram.perBankWrBursts::19         8714                       # Per bank write bursts
system.mem_ctrls.dram.perBankWrBursts::20         8953                       # Per bank write bursts
system.mem_ctrls.dram.perBankWrBursts::21         8989                       # Per bank write bursts
system.mem_ctrls.dram.perBankWrBursts::22         8778                       # Per bank write bursts
system.mem_ctrls.dram.perBankWrBursts::23         9107                       # Per bank write bursts
system.mem_ctrls.dram.perBankWrBursts::24         8645                       # Per bank write bursts
system.mem_ctrls.dram.perBankWrBursts::25         9018                       # Per bank write bursts
system.mem_ctrls.dram.perBankWrBursts::26         8887                       # Per bank write bursts
system.mem_ctrls.dram.perBankWrBursts::27         8862                       # Per bank write bursts
system.mem_ctrls.dram.perBankWrBursts::28         9027                       # Per bank write bursts
system.mem_ctrls.dram.perBankWrBursts::29         8717                       # Per bank write bursts
system.mem_ctrls.dram.perBankWrBursts::30         9020                       # Per bank write bursts
system.mem_ctrls.dram.perBankWrBursts::31         8708                       # Per bank write bursts
system.mem_ctrls.dram.totQLat             11366775369                       # Total ticks spent queuing
system.mem_ctrls.dram.totBusLat            1790366900                       # Total ticks spent in databus transfers
system.mem_ctrls.dram.totMemAccLat        20765664269                       # Total ticks spent from burst creation until serviced by the DRAM
system.mem_ctrls.dram.avgQLat                21154.38                       # Average queueing delay per DRAM burst
system.mem_ctrls.dram.avgBusLat               3332.00                       # Average bus latency per DRAM burst
system.mem_ctrls.dram.avgMemAccLat           38646.38                       # Average memory access latency per DRAM burst
system.mem_ctrls.dram.readRowHits              212307                       # Number of row buffer hits during reads
system.mem_ctrls.dram.writeRowHits              72587                       # Number of row buffer hits during writes
system.mem_ctrls.dram.readRowHitRate            39.51                       # Row buffer hit rate for reads
system.mem_ctrls.dram.writeRowHitRate           25.62                       # Row buffer hit rate for writes
system.mem_ctrls.dram.bytesPerActivate::samples       535738                       # Bytes accessed per row activation
system.mem_ctrls.dram.bytesPerActivate::mean    98.032994                       # Bytes accessed per row activation
system.mem_ctrls.dram.bytesPerActivate::gmean    79.524544                       # Bytes accessed per row activation
system.mem_ctrls.dram.bytesPerActivate::stdev   113.690066                       # Bytes accessed per row activation
system.mem_ctrls.dram.bytesPerActivate::0-127       423853     79.12%     79.12% # Bytes accessed per row activation
system.mem_ctrls.dram.bytesPerActivate::128-255        86125     16.08%     95.19% # Bytes accessed per row activation
system.mem_ctrls.dram.bytesPerActivate::256-383         8424      1.57%     96.76% # Bytes accessed per row activation
system.mem_ctrls.dram.bytesPerActivate::384-511         4887      0.91%     97.68% # Bytes accessed per row activation
system.mem_ctrls.dram.bytesPerActivate::512-639         3680      0.69%     98.36% # Bytes accessed per row activation
system.mem_ctrls.dram.bytesPerActivate::640-767         2837      0.53%     98.89% # Bytes accessed per row activation
system.mem_ctrls.dram.bytesPerActivate::768-895         2981      0.56%     99.45% # Bytes accessed per row activation
system.mem_ctrls.dram.bytesPerActivate::896-1023          491      0.09%     99.54% # Bytes accessed per row activation
system.mem_ctrls.dram.bytesPerActivate::1024-1151         2460      0.46%    100.00% # Bytes accessed per row activation
system.mem_ctrls.dram.bytesPerActivate::total       535738                       # Bytes accessed per row activation
system.mem_ctrls.dram.bytesRead              34388800                       # Total number of bytes read from DRAM
system.mem_ctrls.dram.bytesWritten           18131968                       # Total number of bytes written to DRAM
system.mem_ctrls.dram.avgRdBW              271.062649                       # Average DRAM read bandwidth in MiBytes/s
system.mem_ctrls.dram.avgWrBW              142.921511                       # Average DRAM write bandwidth in MiBytes/s
system.mem_ctrls.dram.peakBW                 19207.00                       # Theoretical peak bandwidth in MiByte/s
system.mem_ctrls.dram.busUtil                    2.16                       # Data bus utilization in percentage
system.mem_ctrls.dram.busUtilRead                1.41                       # Data bus utilization in percentage for reads
system.mem_ctrls.dram.busUtilWrite               0.74                       # Data bus utilization in percentage for writes
system.mem_ctrls.dram.pageHitRate               34.72                       # Row buffer hit rate, read and write combined
system.mem_ctrls.dram.power_state.pwrStateResidencyTicks::UNDEFINED 126866612500                       # Cumulative time (in ticks) in various power states
system.mem_ctrls.dram.rank0.actEnergy    434474900.496006                       # Energy for activate commands per rank (pJ)
system.mem_ctrls.dram.rank0.preEnergy    767009799.309627                       # Energy for precharge commands per rank (pJ)
system.mem_ctrls.dram.rank0.readEnergy   902546548.915131                       # Energy for read commands per rank (pJ)
system.mem_ctrls.dram.rank0.writeEnergy  332881674.047993                       # Energy for write commands per rank (pJ)
system.mem_ctrls.dram.rank0.refreshEnergy 11012390325.182537                       # Energy for refresh commands per rank (pJ)
system.mem_ctrls.dram.rank0.actBackEnergy 58776726671.297119                       # Energy for active background per rank (pJ)
system.mem_ctrls.dram.rank0.preBackEnergy 832435964.371249                       # Energy for precharge background per rank (pJ)
system.mem_ctrls.dram.rank0.actPowerDownEnergy            0                       # Energy for active power-down per rank (pJ)
system.mem_ctrls.dram.rank0.prePowerDownEnergy            0                       # Energy for precharge power-down per rank (pJ)
system.mem_ctrls.dram.rank0.selfRefreshEnergy            0                       # Energy for self refresh per rank (pJ)
system.mem_ctrls.dram.rank0.totalEnergy  73058465883.614487                       # Total energy per rank (pJ)
system.mem_ctrls.dram.rank0.averagePower   575.868343                       # Core power per rank (mW)
system.mem_ctrls.dram.rank0.totalIdleTime            0                       # Total Idle time Per DRAM Rank
system.mem_ctrls.dram.rank0.pwrStateTime::IDLE   2083696880                       # Time in different power states
system.mem_ctrls.dram.rank0.pwrStateTime::REF   5702900000                       # Time in different power states
system.mem_ctrls.dram.rank0.pwrStateTime::SREF            0                       # Time in different power states
system.mem_ctrls.dram.rank0.pwrStateTime::PRE_PDN            0                       # Time in different power states
system.mem_ctrls.dram.rank0.pwrStateTime::ACT 119080015620                       # Time in different power states
system.mem_ctrls.dram.rank0.pwrStateTime::ACT_PDN            0                       # Time in different power states
system.mem_ctrls.dram.rank1.actEnergy    400949875.871999                       # Energy for activate commands per rank (pJ)
system.mem_ctrls.dram.rank1.preEnergy    707822483.709629                       # Energy for precharge commands per rank (pJ)
system.mem_ctrls.dram.rank1.readEnergy   571283483.164769                       # Energy for read commands per rank (pJ)
system.mem_ctrls.dram.rank1.writeEnergy  335467199.423991                       # Energy for write commands per rank (pJ)
system.mem_ctrls.dram.rank1.refreshEnergy 11012390325.182537                       # Energy for refresh commands per rank (pJ)
system.mem_ctrls.dram.rank1.actBackEnergy 57103293464.436325                       # Energy for active background per rank (pJ)
system.mem_ctrls.dram.rank1.preBackEnergy 1987699498.041700                       # Energy for precharge background per rank (pJ)
system.mem_ctrls.dram.rank1.actPowerDownEnergy            0                       # Energy for active power-down per rank (pJ)
system.mem_ctrls.dram.rank1.prePowerDownEnergy            0                       # Energy for precharge power-down per rank (pJ)
system.mem_ctrls.dram.rank1.selfRefreshEnergy            0                       # Energy for self refresh per rank (pJ)
system.mem_ctrls.dram.rank1.totalEnergy  72118906329.825485                       # Total energy per rank (pJ)
system.mem_ctrls.dram.rank1.averagePower   568.462458                       # Core power per rank (mW)
system.mem_ctrls.dram.rank1.totalIdleTime            0                       # Total Idle time Per DRAM Rank
system.mem_ctrls.dram.rank1.pwrStateTime::IDLE   5631613883                       # Time in different power states
system.mem_ctrls.dram.rank1.pwrStateTime::REF   5702900000                       # Time in different power states
system.mem_ctrls.dram.rank1.pwrStateTime::SREF            0                       # Time in different power states
system.mem_ctrls.dram.rank1.pwrStateTime::PRE_PDN            0                       # Time in different power states
system.mem_ctrls.dram.rank1.pwrStateTime::ACT 115532098617                       # Time in different power states
system.mem_ctrls.dram.rank1.pwrStateTime::ACT_PDN            0                       # Time in different power states
system.mem_ctrls.power_state.pwrStateResidencyTicks::UNDEFINED 126866612500                       # Cumulative time (in ticks) in various power states
system.membus.trans_dist::ReadResp             229109                       # Transaction distribution
system.membus.trans_dist::WritebackDirty       283371                       # Transaction distribution
system.membus.trans_dist::CleanEvict           122158                       # Transaction distribution
system.membus.trans_dist::UpgradeReq            57049                       # Transaction distribution
system.membus.trans_dist::SCUpgradeReq              1                       # Transaction distribution
system.membus.trans_dist::ReadExReq            308229                       # Transaction distribution
system.membus.trans_dist::ReadExResp           308229                       # Transaction distribution
system.membus.trans_dist::ReadCleanReq         229109                       # Transaction distribution
system.membus.trans_dist::InvalidateReq            18                       # Transaction distribution
system.membus.pkt_count_system.l2.mem_side_port::system.mem_ctrls.port      1537273                       # Packet count per connected requestor and responder (bytes)
system.membus.pkt_count::total                1537273                       # Packet count per connected requestor and responder (bytes)
system.membus.pkt_size_system.l2.mem_side_port::system.mem_ctrls.port     52525376                       # Cumulative packet size per connected requestor and responder (bytes)
system.membus.pkt_size::total                52525376                       # Cumulative packet size per connected requestor and responder (bytes)
system.membus.snoops                                0                       # Total snoops (count)
system.membus.snoopTraffic                          0                       # Total snoop traffic (bytes)
system.membus.snoop_fanout::samples            594406                       # Request fanout histogram
system.membus.snoop_fanout::mean                    0                       # Request fanout histogram
system.membus.snoop_fanout::stdev                   0                       # Request fanout histogram
system.membus.snoop_fanout::underflows              0      0.00%      0.00% # Request fanout histogram
system.membus.snoop_fanout::0                  594406    100.00%    100.00% # Request fanout histogram
system.membus.snoop_fanout::1                       0      0.00%    100.00% # Request fanout histogram
system.membus.snoop_fanout::overflows               0      0.00%    100.00% # Request fanout histogram
system.membus.snoop_fanout::min_value               0                       # Request fanout histogram
system.membus.snoop_fanout::max_value               0                       # Request fanout histogram
system.membus.snoop_fanout::total              594406                       # Request fanout histogram
system.membus.power_state.pwrStateResidencyTicks::UNDEFINED 126866612500                       # Cumulative time (in ticks) in various power states
system.membus.reqLayer0.occupancy          2307967622                       # Layer occupancy (ticks)
system.membus.reqLayer0.utilization               1.8                       # Layer utilization (%)
system.membus.respLayer1.occupancy         2844579220                       # Layer occupancy (ticks)
system.membus.respLayer1.utilization              2.2                       # Layer utilization (%)
system.tol2bus.trans_dist::ReadResp            332213                       # Transaction distribution
system.tol2bus.trans_dist::WritebackDirty       794699                       # Transaction distribution
system.tol2bus.trans_dist::WritebackClean        53089                       # Transaction distribution
system.tol2bus.trans_dist::CleanEvict          126311                       # Transaction distribution
system.tol2bus.trans_dist::HardPFReq            73068                       # Transaction distribution
system.tol2bus.trans_dist::UpgradeReq          152882                       # Transaction distribution
system.tol2bus.trans_dist::SCUpgradeReq             1                       # Transaction distribution
system.tol2bus.trans_dist::UpgradeResp         152883                       # Transaction distribution
system.tol2bus.trans_dist::ReadExReq           358879                       # Transaction distribution
system.tol2bus.trans_dist::ReadExResp          358879                       # Transaction distribution
system.tol2bus.trans_dist::ReadCleanReq        332213                       # Transaction distribution
system.tol2bus.trans_dist::InvalidateReq           20                       # Transaction distribution
system.tol2bus.trans_dist::InvalidateResp           20                       # Transaction distribution
system.tol2bus.pkt_count_system.cpu.icache.mem_side_port::system.l2.cpu_side_port         2741                       # Packet count per connected requestor and responder (bytes)
system.tol2bus.pkt_count_system.cpu.dcache.mem_side_port::system.l2.cpu_side_port      2374986                       # Packet count per connected requestor and responder (bytes)
system.tol2bus.pkt_count::total               2377727                       # Packet count per connected requestor and responder (bytes)
system.tol2bus.pkt_size_system.cpu.icache.mem_side_port::system.l2.cpu_side_port        72960                       # Cumulative packet size per connected requestor and responder (bytes)
system.tol2bus.pkt_size_system.cpu.dcache.mem_side_port::system.l2.cpu_side_port     80279616                       # Cumulative packet size per connected requestor and responder (bytes)
system.tol2bus.pkt_size::total               80352576                       # Cumulative packet size per connected requestor and responder (bytes)
system.tol2bus.snoops                          357430                       # Total snoops (count)
system.tol2bus.snoopTraffic                  18135744                       # Total snoop traffic (bytes)
system.tol2bus.snoop_fanout::samples          1201425                       # Request fanout histogram
system.tol2bus.snoop_fanout::mean            0.000022                       # Request fanout histogram
system.tol2bus.snoop_fanout::stdev           0.004741                       # Request fanout histogram
system.tol2bus.snoop_fanout::underflows             0      0.00%      0.00% # Request fanout histogram
system.tol2bus.snoop_fanout::0                1201398    100.00%    100.00% # Request fanout histogram
system.tol2bus.snoop_fanout::1                     27      0.00%    100.00% # Request fanout histogram
system.tol2bus.snoop_fanout::2                      0      0.00%    100.00% # Request fanout histogram
system.tol2bus.snoop_fanout::overflows              0      0.00%    100.00% # Request fanout histogram
system.tol2bus.snoop_fanout::min_value              0                       # Request fanout histogram
system.tol2bus.snoop_fanout::max_value              1                       # Request fanout histogram
system.tol2bus.snoop_fanout::total            1201425                       # Request fanout histogram
system.tol2bus.power_state.pwrStateResidencyTicks::UNDEFINED 126866612500                       # Cumulative time (in ticks) in various power states
system.tol2bus.reqLayer0.occupancy         1489809312                       # Layer occupancy (ticks)
system.tol2bus.reqLayer0.utilization              1.2                       # Layer utilization (%)
system.tol2bus.respLayer0.occupancy           1606500                       # Layer occupancy (ticks)
system.tol2bus.respLayer0.utilization             0.0                       # Layer utilization (%)
system.tol2bus.respLayer1.occupancy        1111483499                       # Layer occupancy (ticks)
system.tol2bus.respLayer1.utilization             0.9                       # Layer utilization (%)
system.voltage_domain.voltage                       1                       # Voltage in Volts

---------- End Simulation Statistics   ----------
