
---------- Begin Simulation Statistics ----------
final_tick                               196882174500                       # Number of ticks from beginning of simulation (restored from checkpoints and never reset)
host_inst_rate                                 142727                       # Simulator instruction rate (inst/s)
host_mem_usage                                8634120                       # Number of bytes of host memory used
host_op_rate                                   162781                       # Simulator op (including micro ops) rate (op/s)
host_seconds                                  3503.20                       # Real time elapsed on the host
host_tick_rate                               56200684                       # Simulator tick rate (ticks/s)
sim_freq                                 1000000000000                       # Frequency of simulated ticks
sim_insts                                   500000000                       # Number of instructions simulated
sim_ops                                     570253008                       # Number of ops (including micro ops) simulated
sim_seconds                                  0.196882                       # Number of seconds simulated
sim_ticks                                196882174500                       # Number of ticks simulated
system.cpu.cc_regfile_reads                 210081393                       # number of cc regfile reads
system.cpu.cc_regfile_writes                209713904                       # number of cc regfile writes
system.cpu.committedInsts                   500000000                       # Number of Instructions Simulated
system.cpu.committedOps                     570253008                       # Number of Ops (including micro ops) Simulated
system.cpu.cpi                               0.787529                       # CPI: Cycles Per Instruction
system.cpu.cpi_total                         0.787529                       # CPI: Total CPI of All Threads
system.cpu.dcache.MSHRs.leapFrogMisses           5301                       # number of false blocks from MSHR
system.cpu.icache.MSHRs.leapFrogMisses              0                       # number of false blocks from MSHR
system.cpu.idleCycles                        20307434                       # Total number of cycles that the CPU has spent unscheduled due to idling
system.cpu.iew.branchMispredicts              6244521                       # Number of branch mispredicts detected at execute
system.cpu.iew.exec_branches                133062086                       # Number of branches executed
system.cpu.iew.exec_nop                       1435492                       # number of nop insts executed
system.cpu.iew.exec_rate                     1.618288                       # Inst execution rate
system.cpu.iew.exec_refs                    215175453                       # number of memory reference insts executed
system.cpu.iew.exec_stores                   79211204                       # Number of stores executed
system.cpu.iew.exec_swp                             0                       # number of swp insts executed
system.cpu.iew.iewBlockCycles                14930005                       # Number of cycles IEW is blocking
system.cpu.iew.iewDispLoadInsts             141211706                       # Number of dispatched load instructions
system.cpu.iew.iewDispNonSpecInsts              96230                       # Number of dispatched non-speculative instructions
system.cpu.iew.iewDispSquashedInsts           1707665                       # Number of squashed instructions skipped by dispatch
system.cpu.iew.iewDispStoreInsts             85735514                       # Number of dispatched store instructions
system.cpu.iew.iewDispatchedInsts           677804057                       # Number of instructions dispatched to IQ
system.cpu.iew.iewExecLoadInsts             135964249                       # Number of load instructions executed
system.cpu.iew.iewExecSquashedInsts           7931008                       # Number of squashed instructions skipped in execute
system.cpu.iew.iewExecutedInsts             637224101                       # Number of executed instructions
system.cpu.iew.iewIQFullEvents                 206937                       # Number of times the IQ has become full, causing a stall
system.cpu.iew.iewIdleCycles                        0                       # Number of cycles IEW is idle
system.cpu.iew.iewLSQFullEvents               1673738                       # Number of times the LSQ has become full, causing a stall
system.cpu.iew.iewSquashCycles                5564671                       # Number of cycles IEW is squashing
system.cpu.iew.iewUnblockCycles               1972327                       # Number of cycles IEW is unblocking
system.cpu.iew.memOrderViolationEvents          97871                       # Number of memory order violations
system.cpu.iew.predictedNotTakenIncorrect      4452740                       # Number of branches that were predicted not taken incorrectly
system.cpu.iew.predictedTakenIncorrect        1791781                       # Number of branches that were predicted taken incorrectly
system.cpu.iew.wb_consumers                 635764708                       # num instructions consuming a value
system.cpu.iew.wb_count                     628295407                       # cumulative count of insts written-back
system.cpu.iew.wb_fanout                     0.532887                       # average fanout of values written-back
system.cpu.iew.wb_producers                 338790453                       # num instructions producing a value
system.cpu.iew.wb_rate                       1.595613                       # insts written-back per cycle
system.cpu.iew.wb_sent                      630601679                       # cumulative count of insts sent to commit
system.cpu.int_regfile_reads                688559259                       # number of integer regfile reads
system.cpu.int_regfile_writes               438621233                       # number of integer regfile writes
system.cpu.ipc                               1.269795                       # IPC: Instructions Per Cycle
system.cpu.ipc_total                         1.269795                       # IPC: Total IPC of All Threads
system.cpu.iq.FU_type_0::No_OpClass            113250      0.02%      0.02% # Type of FU issued
system.cpu.iq.FU_type_0::IntAlu             423427634     65.63%     65.65% # Type of FU issued
system.cpu.iq.FU_type_0::IntMult              1183564      0.18%     65.83% # Type of FU issued
system.cpu.iq.FU_type_0::IntDiv                 11952      0.00%     65.83% # Type of FU issued
system.cpu.iq.FU_type_0::FloatAdd                 376      0.00%     65.83% # Type of FU issued
system.cpu.iq.FU_type_0::FloatCmp                3193      0.00%     65.84% # Type of FU issued
system.cpu.iq.FU_type_0::FloatCvt                 735      0.00%     65.84% # Type of FU issued
system.cpu.iq.FU_type_0::FloatMult                659      0.00%     65.84% # Type of FU issued
system.cpu.iq.FU_type_0::FloatMultAcc               8      0.00%     65.84% # Type of FU issued
system.cpu.iq.FU_type_0::FloatDiv                 159      0.00%     65.84% # Type of FU issued
system.cpu.iq.FU_type_0::FloatMisc             313809      0.05%     65.88% # Type of FU issued
system.cpu.iq.FU_type_0::FloatSqrt                  1      0.00%     65.88% # Type of FU issued
system.cpu.iq.FU_type_0::SimdAdd                  506      0.00%     65.88% # Type of FU issued
system.cpu.iq.FU_type_0::SimdAddAcc                 0      0.00%     65.88% # Type of FU issued
system.cpu.iq.FU_type_0::SimdAlu               207961      0.03%     65.92% # Type of FU issued
system.cpu.iq.FU_type_0::SimdCmp               339307      0.05%     65.97% # Type of FU issued
system.cpu.iq.FU_type_0::SimdCvt                  822      0.00%     65.97% # Type of FU issued
system.cpu.iq.FU_type_0::SimdMisc              407417      0.06%     66.03% # Type of FU issued
system.cpu.iq.FU_type_0::SimdMult                   0      0.00%     66.03% # Type of FU issued
system.cpu.iq.FU_type_0::SimdMultAcc                0      0.00%     66.03% # Type of FU issued
system.cpu.iq.FU_type_0::SimdShift              91376      0.01%     66.05% # Type of FU issued
system.cpu.iq.FU_type_0::SimdShiftAcc               0      0.00%     66.05% # Type of FU issued
system.cpu.iq.FU_type_0::SimdDiv                    0      0.00%     66.05% # Type of FU issued
system.cpu.iq.FU_type_0::SimdSqrt                   0      0.00%     66.05% # Type of FU issued
system.cpu.iq.FU_type_0::SimdFloatAdd               0      0.00%     66.05% # Type of FU issued
system.cpu.iq.FU_type_0::SimdFloatAlu               0      0.00%     66.05% # Type of FU issued
system.cpu.iq.FU_type_0::SimdFloatCmp             288      0.00%     66.05% # Type of FU issued
system.cpu.iq.FU_type_0::SimdFloatCvt               0      0.00%     66.05% # Type of FU issued
system.cpu.iq.FU_type_0::SimdFloatDiv               0      0.00%     66.05% # Type of FU issued
system.cpu.iq.FU_type_0::SimdFloatMisc              0      0.00%     66.05% # Type of FU issued
system.cpu.iq.FU_type_0::SimdFloatMult              0      0.00%     66.05% # Type of FU issued
system.cpu.iq.FU_type_0::SimdFloatMultAcc            0      0.00%     66.05% # Type of FU issued
system.cpu.iq.FU_type_0::SimdFloatSqrt              0      0.00%     66.05% # Type of FU issued
system.cpu.iq.FU_type_0::SimdReduceAdd              0      0.00%     66.05% # Type of FU issued
system.cpu.iq.FU_type_0::SimdReduceAlu              0      0.00%     66.05% # Type of FU issued
system.cpu.iq.FU_type_0::SimdReduceCmp              0      0.00%     66.05% # Type of FU issued
system.cpu.iq.FU_type_0::SimdFloatReduceAdd            0      0.00%     66.05% # Type of FU issued
system.cpu.iq.FU_type_0::SimdFloatReduceCmp            0      0.00%     66.05% # Type of FU issued
system.cpu.iq.FU_type_0::SimdAes                    0      0.00%     66.05% # Type of FU issued
system.cpu.iq.FU_type_0::SimdAesMix                 0      0.00%     66.05% # Type of FU issued
system.cpu.iq.FU_type_0::SimdSha1Hash               0      0.00%     66.05% # Type of FU issued
system.cpu.iq.FU_type_0::SimdSha1Hash2              0      0.00%     66.05% # Type of FU issued
system.cpu.iq.FU_type_0::SimdSha256Hash             0      0.00%     66.05% # Type of FU issued
system.cpu.iq.FU_type_0::SimdSha256Hash2            0      0.00%     66.05% # Type of FU issued
system.cpu.iq.FU_type_0::SimdShaSigma2              0      0.00%     66.05% # Type of FU issued
system.cpu.iq.FU_type_0::SimdShaSigma3              0      0.00%     66.05% # Type of FU issued
system.cpu.iq.FU_type_0::SimdPredAlu                0      0.00%     66.05% # Type of FU issued
system.cpu.iq.FU_type_0::MemRead            138307133     21.44%     87.48% # Type of FU issued
system.cpu.iq.FU_type_0::MemWrite            80744959     12.52%    100.00% # Type of FU issued
system.cpu.iq.FU_type_0::FloatMemRead               0      0.00%    100.00% # Type of FU issued
system.cpu.iq.FU_type_0::FloatMemWrite              0      0.00%    100.00% # Type of FU issued
system.cpu.iq.FU_type_0::IprAccess                  0      0.00%    100.00% # Type of FU issued
system.cpu.iq.FU_type_0::InstPrefetch               0      0.00%    100.00% # Type of FU issued
system.cpu.iq.FU_type_0::total              645155109                       # Type of FU issued
system.cpu.iq.fp_alu_accesses                       0                       # Number of floating point alu accesses
system.cpu.iq.fp_inst_queue_reads                   0                       # Number of floating instruction queue reads
system.cpu.iq.fp_inst_queue_wakeup_accesses            0                       # Number of floating instruction queue wakeup accesses
system.cpu.iq.fp_inst_queue_writes                  0                       # Number of floating instruction queue writes
system.cpu.iq.fu_busy_cnt                     9303835                       # FU busy when requested
system.cpu.iq.fu_busy_rate                   0.014421                       # FU busy rate (busy events/executed inst)
system.cpu.iq.fu_full::No_OpClass                   0      0.00%      0.00% # attempts to use FU when none available
system.cpu.iq.fu_full::IntAlu                 2870231     30.85%     30.85% # attempts to use FU when none available
system.cpu.iq.fu_full::IntMult                   7150      0.08%     30.93% # attempts to use FU when none available
system.cpu.iq.fu_full::IntDiv                   32315      0.35%     31.27% # attempts to use FU when none available
system.cpu.iq.fu_full::FloatAdd                     0      0.00%     31.27% # attempts to use FU when none available
system.cpu.iq.fu_full::FloatCmp                     0      0.00%     31.27% # attempts to use FU when none available
system.cpu.iq.fu_full::FloatCvt                     0      0.00%     31.27% # attempts to use FU when none available
system.cpu.iq.fu_full::FloatMult                    0      0.00%     31.27% # attempts to use FU when none available
system.cpu.iq.fu_full::FloatMultAcc                 0      0.00%     31.27% # attempts to use FU when none available
system.cpu.iq.fu_full::FloatDiv                     0      0.00%     31.27% # attempts to use FU when none available
system.cpu.iq.fu_full::FloatMisc                  162      0.00%     31.28% # attempts to use FU when none available
system.cpu.iq.fu_full::FloatSqrt                    0      0.00%     31.28% # attempts to use FU when none available
system.cpu.iq.fu_full::SimdAdd                      0      0.00%     31.28% # attempts to use FU when none available
system.cpu.iq.fu_full::SimdAddAcc                   0      0.00%     31.28% # attempts to use FU when none available
system.cpu.iq.fu_full::SimdAlu                      0      0.00%     31.28% # attempts to use FU when none available
system.cpu.iq.fu_full::SimdCmp                      0      0.00%     31.28% # attempts to use FU when none available
system.cpu.iq.fu_full::SimdCvt                      0      0.00%     31.28% # attempts to use FU when none available
system.cpu.iq.fu_full::SimdMisc                    21      0.00%     31.28% # attempts to use FU when none available
system.cpu.iq.fu_full::SimdMult                     0      0.00%     31.28% # attempts to use FU when none available
system.cpu.iq.fu_full::SimdMultAcc                  0      0.00%     31.28% # attempts to use FU when none available
system.cpu.iq.fu_full::SimdShift                   17      0.00%     31.28% # attempts to use FU when none available
system.cpu.iq.fu_full::SimdShiftAcc                 0      0.00%     31.28% # attempts to use FU when none available
system.cpu.iq.fu_full::SimdDiv                      0      0.00%     31.28% # attempts to use FU when none available
system.cpu.iq.fu_full::SimdSqrt                     0      0.00%     31.28% # attempts to use FU when none available
system.cpu.iq.fu_full::SimdFloatAdd                 0      0.00%     31.28% # attempts to use FU when none available
system.cpu.iq.fu_full::SimdFloatAlu                 0      0.00%     31.28% # attempts to use FU when none available
system.cpu.iq.fu_full::SimdFloatCmp                 0      0.00%     31.28% # attempts to use FU when none available
system.cpu.iq.fu_full::SimdFloatCvt                 0      0.00%     31.28% # attempts to use FU when none available
system.cpu.iq.fu_full::SimdFloatDiv                 0      0.00%     31.28% # attempts to use FU when none available
system.cpu.iq.fu_full::SimdFloatMisc                0      0.00%     31.28% # attempts to use FU when none available
system.cpu.iq.fu_full::SimdFloatMult                0      0.00%     31.28% # attempts to use FU when none available
system.cpu.iq.fu_full::SimdFloatMultAcc             0      0.00%     31.28% # attempts to use FU when none available
system.cpu.iq.fu_full::SimdFloatSqrt                0      0.00%     31.28% # attempts to use FU when none available
system.cpu.iq.fu_full::SimdReduceAdd                0      0.00%     31.28% # attempts to use FU when none available
system.cpu.iq.fu_full::SimdReduceAlu                0      0.00%     31.28% # attempts to use FU when none available
system.cpu.iq.fu_full::SimdReduceCmp                0      0.00%     31.28% # attempts to use FU when none available
system.cpu.iq.fu_full::SimdFloatReduceAdd            0      0.00%     31.28% # attempts to use FU when none available
system.cpu.iq.fu_full::SimdFloatReduceCmp            0      0.00%     31.28% # attempts to use FU when none available
system.cpu.iq.fu_full::SimdAes                      0      0.00%     31.28% # attempts to use FU when none available
system.cpu.iq.fu_full::SimdAesMix                   0      0.00%     31.28% # attempts to use FU when none available
system.cpu.iq.fu_full::SimdSha1Hash                 0      0.00%     31.28% # attempts to use FU when none available
system.cpu.iq.fu_full::SimdSha1Hash2                0      0.00%     31.28% # attempts to use FU when none available
system.cpu.iq.fu_full::SimdSha256Hash               0      0.00%     31.28% # attempts to use FU when none available
system.cpu.iq.fu_full::SimdSha256Hash2              0      0.00%     31.28% # attempts to use FU when none available
system.cpu.iq.fu_full::SimdShaSigma2                0      0.00%     31.28% # attempts to use FU when none available
system.cpu.iq.fu_full::SimdShaSigma3                0      0.00%     31.28% # attempts to use FU when none available
system.cpu.iq.fu_full::SimdPredAlu                  0      0.00%     31.28% # attempts to use FU when none available
system.cpu.iq.fu_full::MemRead                3219590     34.60%     65.88% # attempts to use FU when none available
system.cpu.iq.fu_full::MemWrite               3174349     34.12%    100.00% # attempts to use FU when none available
system.cpu.iq.fu_full::FloatMemRead                 0      0.00%    100.00% # attempts to use FU when none available
system.cpu.iq.fu_full::FloatMemWrite                0      0.00%    100.00% # attempts to use FU when none available
system.cpu.iq.fu_full::IprAccess                    0      0.00%    100.00% # attempts to use FU when none available
system.cpu.iq.fu_full::InstPrefetch                 0      0.00%    100.00% # attempts to use FU when none available
system.cpu.iq.int_alu_accesses              647686888                       # Number of integer alu accesses
system.cpu.iq.int_inst_queue_reads         1660276452                       # Number of integer instruction queue reads
system.cpu.iq.int_inst_queue_wakeup_accesses    622126731                       # Number of integer instruction queue wakeup accesses
system.cpu.iq.int_inst_queue_writes         774647746                       # Number of integer instruction queue writes
system.cpu.iq.iqInstsAdded                  676272334                       # Number of instructions added to the IQ (excludes non-spec)
system.cpu.iq.iqInstsIssued                 645155109                       # Number of instructions issued
system.cpu.iq.iqNonSpecInstsAdded               96231                       # Number of non-speculative instructions added to the IQ
system.cpu.iq.iqSquashedInstsExamined       106115549                       # Number of squashed instructions iterated over during squash; mainly for profiling
system.cpu.iq.iqSquashedInstsIssued            490094                       # Number of squashed instructions issued
system.cpu.iq.iqSquashedNonSpecRemoved          35962                       # Number of squashed non-spec instructions that were removed
system.cpu.iq.iqSquashedOperandsExamined     73791129                       # Number of squashed operands that are examined and possibly removed from graph
system.cpu.iq.issued_per_cycle::samples     373456941                       # Number of insts issued each cycle
system.cpu.iq.issued_per_cycle::mean         1.727522                       # Number of insts issued each cycle
system.cpu.iq.issued_per_cycle::stdev        2.253983                       # Number of insts issued each cycle
system.cpu.iq.issued_per_cycle::underflows            0      0.00%      0.00% # Number of insts issued each cycle
system.cpu.iq.issued_per_cycle::0           183669413     49.18%     49.18% # Number of insts issued each cycle
system.cpu.iq.issued_per_cycle::1            45213653     12.11%     61.29% # Number of insts issued each cycle
system.cpu.iq.issued_per_cycle::2            33989059      9.10%     70.39% # Number of insts issued each cycle
system.cpu.iq.issued_per_cycle::3            29861792      8.00%     78.38% # Number of insts issued each cycle
system.cpu.iq.issued_per_cycle::4            24650361      6.60%     84.99% # Number of insts issued each cycle
system.cpu.iq.issued_per_cycle::5            18480952      4.95%     89.93% # Number of insts issued each cycle
system.cpu.iq.issued_per_cycle::6            20024223      5.36%     95.30% # Number of insts issued each cycle
system.cpu.iq.issued_per_cycle::7             9313484      2.49%     97.79% # Number of insts issued each cycle
system.cpu.iq.issued_per_cycle::8             8254004      2.21%    100.00% # Number of insts issued each cycle
system.cpu.iq.issued_per_cycle::overflows            0      0.00%    100.00% # Number of insts issued each cycle
system.cpu.iq.issued_per_cycle::min_value            0                       # Number of insts issued each cycle
system.cpu.iq.issued_per_cycle::max_value            8                       # Number of insts issued each cycle
system.cpu.iq.issued_per_cycle::total       373456941                       # Number of insts issued each cycle
system.cpu.iq.rate                           1.638429                       # Inst issue rate
system.cpu.iq.vec_alu_accesses                6658806                       # Number of vector alu accesses
system.cpu.iq.vec_inst_queue_reads           13284636                       # Number of vector instruction queue reads
system.cpu.iq.vec_inst_queue_wakeup_accesses      6168676                       # Number of vector instruction queue wakeup accesses
system.cpu.iq.vec_inst_queue_writes           7928815                       # Number of vector instruction queue writes
system.cpu.memDep0.conflictingLoads           5229404                       # Number of conflicting loads.
system.cpu.memDep0.conflictingStores          9737145                       # Number of conflicting stores.
system.cpu.memDep0.insertedLoads            141211706                       # Number of loads inserted to the mem dependence unit.
system.cpu.memDep0.insertedStores            85735514                       # Number of stores inserted to the mem dependence unit.
system.cpu.misc_regfile_reads              1524615641                       # number of misc regfile reads
system.cpu.misc_regfile_writes                  63944                       # number of misc regfile writes
system.cpu.numCycles                        393764375                       # number of cpu cycles simulated
system.cpu.numWorkItemsCompleted                    0                       # number of work items this cpu completed
system.cpu.numWorkItemsStarted                      0                       # number of work items this cpu started
system.cpu.pred_regfile_reads                  474554                       # number of predicate regfile reads
system.cpu.pred_regfile_writes                 169291                       # number of predicate regfile writes
system.cpu.timesIdled                         4006963                       # Number of times that the entire CPU went into an idle state and unscheduled itself
system.cpu.vec_regfile_reads                  4765363                       # number of vector regfile reads
system.cpu.vec_regfile_writes                 2253069                       # number of vector regfile writes
system.cpu.workload.numSyscalls                  1461                       # Number of system calls
system.l2.MSHRs.leapFrogMisses                      0                       # number of false blocks from MSHR
system.membus.snoop_filter.hit_multi_requests            0                       # Number of requests hitting in the snoop filter with multiple (>1) holders of the requested data.
system.membus.snoop_filter.hit_multi_snoops            0                       # Number of snoops hitting in the snoop filter with multiple (>1) holders of the requested data.
system.membus.snoop_filter.hit_single_requests       274883                       # Number of requests hitting in the snoop filter with a single holder of the requested data.
system.membus.snoop_filter.hit_single_snoops            0                       # Number of snoops hitting in the snoop filter with a single holder of the requested data.
system.membus.snoop_filter.tot_requests        668328                       # Total number of requests made to the snoop filter.
system.membus.snoop_filter.tot_snoops               0                       # Total number of snoops made to the snoop filter.
system.tol2bus.snoop_filter.hit_multi_requests        20936                       # Number of requests hitting in the snoop filter with multiple (>1) holders of the requested data.
system.tol2bus.snoop_filter.hit_multi_snoops           28                       # Number of snoops hitting in the snoop filter with multiple (>1) holders of the requested data.
system.tol2bus.snoop_filter.hit_single_requests      9614172                       # Number of requests hitting in the snoop filter with a single holder of the requested data.
system.tol2bus.snoop_filter.hit_single_snoops        89564                       # Number of snoops hitting in the snoop filter with a single holder of the requested data.
system.tol2bus.snoop_filter.tot_requests     19229564                       # Total number of requests made to the snoop filter.
system.tol2bus.snoop_filter.tot_snoops          89592                       # Total number of snoops made to the snoop filter.
system.clk_domain.clock                          1000                       # Clock period in ticks
system.cpu.branchPred.lookups               157331229                       # Number of BP lookups
system.cpu.branchPred.condPredicted         130194950                       # Number of conditional branches predicted
system.cpu.branchPred.condIncorrect           6603196                       # Number of conditional branches incorrect
system.cpu.branchPred.BTBLookups             64518696                       # Number of BTB lookups
system.cpu.branchPred.BTBHits                58684826                       # Number of BTB hits
system.cpu.branchPred.BTBHitPct             90.957861                       # BTB Hit Percentage
system.cpu.branchPred.RASUsed                 7114727                       # Number of times the RAS was used to get a target.
system.cpu.branchPred.RASIncorrect              10319                       # Number of incorrect RAS predictions.
system.cpu.branchPred.indirectLookups         3338932                       # Number of indirect predictor lookups.
system.cpu.branchPred.indirectHits            1960970                       # Number of indirect target hits.
system.cpu.branchPred.indirectMisses          1377962                       # Number of indirect misses.
system.cpu.branchPred.indirectMispredicted       644025                       # Number of mispredicted indirect branches.
system.cpu.commit.commitSquashedInsts       106334165                       # The number of squashed insts skipped by commit
system.cpu.commit.commitNonSpecStalls           60269                       # The number of times commit has been forced to stall to communicate backwards
system.cpu.commit.branchMispredicts           5480175                       # The number of times a branch was mispredicted
system.cpu.commit.numCommittedDist::samples    356593848                       # Number of insts commited each cycle
system.cpu.commit.numCommittedDist::mean     1.602400                       # Number of insts commited each cycle
system.cpu.commit.numCommittedDist::stdev     2.636626                       # Number of insts commited each cycle
system.cpu.commit.numCommittedDist::underflows            0      0.00%      0.00% # Number of insts commited each cycle
system.cpu.commit.numCommittedDist::0       202739126     56.85%     56.85% # Number of insts commited each cycle
system.cpu.commit.numCommittedDist::1        57730407     16.19%     73.04% # Number of insts commited each cycle
system.cpu.commit.numCommittedDist::2        21146748      5.93%     78.97% # Number of insts commited each cycle
system.cpu.commit.numCommittedDist::3        11689592      3.28%     82.25% # Number of insts commited each cycle
system.cpu.commit.numCommittedDist::4         7768702      2.18%     84.43% # Number of insts commited each cycle
system.cpu.commit.numCommittedDist::5         6194569      1.74%     86.17% # Number of insts commited each cycle
system.cpu.commit.numCommittedDist::6         8050946      2.26%     88.43% # Number of insts commited each cycle
system.cpu.commit.numCommittedDist::7         4230231      1.19%     89.61% # Number of insts commited each cycle
system.cpu.commit.numCommittedDist::8        37043527     10.39%    100.00% # Number of insts commited each cycle
system.cpu.commit.numCommittedDist::overflows            0      0.00%    100.00% # Number of insts commited each cycle
system.cpu.commit.numCommittedDist::min_value            0                       # Number of insts commited each cycle
system.cpu.commit.numCommittedDist::max_value            8                       # Number of insts commited each cycle
system.cpu.commit.numCommittedDist::total    356593848                       # Number of insts commited each cycle
system.cpu.commit.instsCommitted            501152833                       # Number of instructions committed
system.cpu.commit.opsCommitted              571405841                       # Number of ops (including micro ops) committed
system.cpu.commit.memRefs                   191297425                       # Number of memory references committed
system.cpu.commit.loads                     118484092                       # Number of loads committed
system.cpu.commit.amos                          29398                       # Number of atomic instructions committed
system.cpu.commit.membars                       29412                       # Number of memory barriers committed
system.cpu.commit.branches                  121887817                       # Number of branches committed
system.cpu.commit.vector                      5734095                       # Number of committed Vector instructions.
system.cpu.commit.floating                          0                       # Number of committed floating point instructions.
system.cpu.commit.integer                   502036746                       # Number of committed integer instructions.
system.cpu.commit.functionCalls               5566834                       # Number of function calls committed.
system.cpu.commit.committedInstType_0::No_OpClass       111791      0.02%      0.02% # Class of committed instruction
system.cpu.commit.committedInstType_0::IntAlu    377697565     66.10%     66.12% # Class of committed instruction
system.cpu.commit.committedInstType_0::IntMult      1028525      0.18%     66.30% # Class of committed instruction
system.cpu.commit.committedInstType_0::IntDiv        10851      0.00%     66.30% # Class of committed instruction
system.cpu.commit.committedInstType_0::FloatAdd          354      0.00%     66.30% # Class of committed instruction
system.cpu.commit.committedInstType_0::FloatCmp         2678      0.00%     66.30% # Class of committed instruction
system.cpu.commit.committedInstType_0::FloatCvt          711      0.00%     66.30% # Class of committed instruction
system.cpu.commit.committedInstType_0::FloatMult          281      0.00%     66.30% # Class of committed instruction
system.cpu.commit.committedInstType_0::FloatMultAcc            8      0.00%     66.30% # Class of committed instruction
system.cpu.commit.committedInstType_0::FloatDiv           94      0.00%     66.30% # Class of committed instruction
system.cpu.commit.committedInstType_0::FloatMisc       286302      0.05%     66.35% # Class of committed instruction
system.cpu.commit.committedInstType_0::FloatSqrt            0      0.00%     66.35% # Class of committed instruction
system.cpu.commit.committedInstType_0::SimdAdd          446      0.00%     66.35% # Class of committed instruction
system.cpu.commit.committedInstType_0::SimdAddAcc            0      0.00%     66.35% # Class of committed instruction
system.cpu.commit.committedInstType_0::SimdAlu       198681      0.03%     66.39% # Class of committed instruction
system.cpu.commit.committedInstType_0::SimdCmp       307879      0.05%     66.44% # Class of committed instruction
system.cpu.commit.committedInstType_0::SimdCvt          763      0.00%     66.44% # Class of committed instruction
system.cpu.commit.committedInstType_0::SimdMisc       373325      0.07%     66.51% # Class of committed instruction
system.cpu.commit.committedInstType_0::SimdMult            0      0.00%     66.51% # Class of committed instruction
system.cpu.commit.committedInstType_0::SimdMultAcc            0      0.00%     66.51% # Class of committed instruction
system.cpu.commit.committedInstType_0::SimdShift        88162      0.02%     66.52% # Class of committed instruction
system.cpu.commit.committedInstType_0::SimdShiftAcc            0      0.00%     66.52% # Class of committed instruction
system.cpu.commit.committedInstType_0::SimdDiv            0      0.00%     66.52% # Class of committed instruction
system.cpu.commit.committedInstType_0::SimdSqrt            0      0.00%     66.52% # Class of committed instruction
system.cpu.commit.committedInstType_0::SimdFloatAdd            0      0.00%     66.52% # Class of committed instruction
system.cpu.commit.committedInstType_0::SimdFloatAlu            0      0.00%     66.52% # Class of committed instruction
system.cpu.commit.committedInstType_0::SimdFloatCmp            0      0.00%     66.52% # Class of committed instruction
system.cpu.commit.committedInstType_0::SimdFloatCvt            0      0.00%     66.52% # Class of committed instruction
system.cpu.commit.committedInstType_0::SimdFloatDiv            0      0.00%     66.52% # Class of committed instruction
system.cpu.commit.committedInstType_0::SimdFloatMisc            0      0.00%     66.52% # Class of committed instruction
system.cpu.commit.committedInstType_0::SimdFloatMult            0      0.00%     66.52% # Class of committed instruction
system.cpu.commit.committedInstType_0::SimdFloatMultAcc            0      0.00%     66.52% # Class of committed instruction
system.cpu.commit.committedInstType_0::SimdFloatSqrt            0      0.00%     66.52% # Class of committed instruction
system.cpu.commit.committedInstType_0::SimdReduceAdd            0      0.00%     66.52% # Class of committed instruction
system.cpu.commit.committedInstType_0::SimdReduceAlu            0      0.00%     66.52% # Class of committed instruction
system.cpu.commit.committedInstType_0::SimdReduceCmp            0      0.00%     66.52% # Class of committed instruction
system.cpu.commit.committedInstType_0::SimdFloatReduceAdd            0      0.00%     66.52% # Class of committed instruction
system.cpu.commit.committedInstType_0::SimdFloatReduceCmp            0      0.00%     66.52% # Class of committed instruction
system.cpu.commit.committedInstType_0::SimdAes            0      0.00%     66.52% # Class of committed instruction
system.cpu.commit.committedInstType_0::SimdAesMix            0      0.00%     66.52% # Class of committed instruction
system.cpu.commit.committedInstType_0::SimdSha1Hash            0      0.00%     66.52% # Class of committed instruction
system.cpu.commit.committedInstType_0::SimdSha1Hash2            0      0.00%     66.52% # Class of committed instruction
system.cpu.commit.committedInstType_0::SimdSha256Hash            0      0.00%     66.52% # Class of committed instruction
system.cpu.commit.committedInstType_0::SimdSha256Hash2            0      0.00%     66.52% # Class of committed instruction
system.cpu.commit.committedInstType_0::SimdShaSigma2            0      0.00%     66.52% # Class of committed instruction
system.cpu.commit.committedInstType_0::SimdShaSigma3            0      0.00%     66.52% # Class of committed instruction
system.cpu.commit.committedInstType_0::SimdPredAlu            0      0.00%     66.52% # Class of committed instruction
system.cpu.commit.committedInstType_0::MemRead    118484092     20.74%     87.26% # Class of committed instruction
system.cpu.commit.committedInstType_0::MemWrite     72813333     12.74%    100.00% # Class of committed instruction
system.cpu.commit.committedInstType_0::FloatMemRead            0      0.00%    100.00% # Class of committed instruction
system.cpu.commit.committedInstType_0::FloatMemWrite            0      0.00%    100.00% # Class of committed instruction
system.cpu.commit.committedInstType_0::IprAccess            0      0.00%    100.00% # Class of committed instruction
system.cpu.commit.committedInstType_0::InstPrefetch            0      0.00%    100.00% # Class of committed instruction
system.cpu.commit.committedInstType_0::total    571405841                       # Class of committed instruction
system.cpu.commit.commitEligibleSamples      37043527                       # number cycles where commit BW limit reached
system.cpu.dcache.demand_hits::.cpu.data    195761448                       # number of demand (read+write) hits
system.cpu.dcache.demand_hits::total        195761448                       # number of demand (read+write) hits
system.cpu.dcache.overall_hits::.cpu.data    195761448                       # number of overall hits
system.cpu.dcache.overall_hits::total       195761448                       # number of overall hits
system.cpu.dcache.demand_misses::.cpu.data      5196489                       # number of demand (read+write) misses
system.cpu.dcache.demand_misses::total        5196489                       # number of demand (read+write) misses
system.cpu.dcache.overall_misses::.cpu.data      5196489                       # number of overall misses
system.cpu.dcache.overall_misses::total       5196489                       # number of overall misses
system.cpu.dcache.demand_miss_latency::.cpu.data 113509617536                       # number of demand (read+write) miss cycles
system.cpu.dcache.demand_miss_latency::total 113509617536                       # number of demand (read+write) miss cycles
system.cpu.dcache.overall_miss_latency::.cpu.data 113509617536                       # number of overall miss cycles
system.cpu.dcache.overall_miss_latency::total 113509617536                       # number of overall miss cycles
system.cpu.dcache.demand_accesses::.cpu.data    200957937                       # number of demand (read+write) accesses
system.cpu.dcache.demand_accesses::total    200957937                       # number of demand (read+write) accesses
system.cpu.dcache.overall_accesses::.cpu.data    200957937                       # number of overall (read+write) accesses
system.cpu.dcache.overall_accesses::total    200957937                       # number of overall (read+write) accesses
system.cpu.dcache.demand_miss_rate::.cpu.data     0.025859                       # miss rate for demand accesses
system.cpu.dcache.demand_miss_rate::total     0.025859                       # miss rate for demand accesses
system.cpu.dcache.overall_miss_rate::.cpu.data     0.025859                       # miss rate for overall accesses
system.cpu.dcache.overall_miss_rate::total     0.025859                       # miss rate for overall accesses
system.cpu.dcache.demand_avg_miss_latency::.cpu.data 21843.521181                       # average overall miss latency
system.cpu.dcache.demand_avg_miss_latency::total 21843.521181                       # average overall miss latency
system.cpu.dcache.overall_avg_miss_latency::.cpu.data 21843.521181                       # average overall miss latency
system.cpu.dcache.overall_avg_miss_latency::total 21843.521181                       # average overall miss latency
system.cpu.dcache.blocked_cycles::no_mshrs      5078209                       # number of cycles access was blocked
system.cpu.dcache.blocked_cycles::no_targets       680264                       # number of cycles access was blocked
system.cpu.dcache.blocked::no_mshrs            295468                       # number of cycles access was blocked
system.cpu.dcache.blocked::no_targets            7094                       # number of cycles access was blocked
system.cpu.dcache.avg_blocked_cycles::no_mshrs    17.187002                       # average number of cycles each access was blocked
system.cpu.dcache.avg_blocked_cycles::no_targets    95.892867                       # average number of cycles each access was blocked
system.cpu.dcache.ghost_timestamp_misses            0                       # number of times timestamp policy causes a block to be inaccessible
system.cpu.dcache.ghost_commits                     0                       # number of cache lines moved from ghost to main
system.cpu.dcache.same_leapfrogs                    0                       # number of times leapfrogging occurs with a shared MSHR request
system.cpu.dcache.writebacks::.writebacks      2050766                       # number of writebacks
system.cpu.dcache.writebacks::total           2050766                       # number of writebacks
system.cpu.dcache.demand_mshr_hits::.cpu.data      3144930                       # number of demand (read+write) MSHR hits
system.cpu.dcache.demand_mshr_hits::total      3144930                       # number of demand (read+write) MSHR hits
system.cpu.dcache.overall_mshr_hits::.cpu.data      3144930                       # number of overall MSHR hits
system.cpu.dcache.overall_mshr_hits::total      3144930                       # number of overall MSHR hits
system.cpu.dcache.demand_mshr_misses::.cpu.data      2051559                       # number of demand (read+write) MSHR misses
system.cpu.dcache.demand_mshr_misses::total      2051559                       # number of demand (read+write) MSHR misses
system.cpu.dcache.overall_mshr_misses::.cpu.data      2051559                       # number of overall MSHR misses
system.cpu.dcache.overall_mshr_misses::total      2051559                       # number of overall MSHR misses
system.cpu.dcache.demand_mshr_miss_latency::.cpu.data  38382147540                       # number of demand (read+write) MSHR miss cycles
system.cpu.dcache.demand_mshr_miss_latency::total  38382147540                       # number of demand (read+write) MSHR miss cycles
system.cpu.dcache.overall_mshr_miss_latency::.cpu.data  38382147540                       # number of overall MSHR miss cycles
system.cpu.dcache.overall_mshr_miss_latency::total  38382147540                       # number of overall MSHR miss cycles
system.cpu.dcache.demand_mshr_miss_rate::.cpu.data     0.010209                       # mshr miss rate for demand accesses
system.cpu.dcache.demand_mshr_miss_rate::total     0.010209                       # mshr miss rate for demand accesses
system.cpu.dcache.overall_mshr_miss_rate::.cpu.data     0.010209                       # mshr miss rate for overall accesses
system.cpu.dcache.overall_mshr_miss_rate::total     0.010209                       # mshr miss rate for overall accesses
system.cpu.dcache.demand_avg_mshr_miss_latency::.cpu.data 18708.771008                       # average overall mshr miss latency
system.cpu.dcache.demand_avg_mshr_miss_latency::total 18708.771008                       # average overall mshr miss latency
system.cpu.dcache.overall_avg_mshr_miss_latency::.cpu.data 18708.771008                       # average overall mshr miss latency
system.cpu.dcache.overall_avg_mshr_miss_latency::total 18708.771008                       # average overall mshr miss latency
system.cpu.dcache.replacements                2050766                       # number of replacements
system.cpu.dcache.ReadReq_hits::.cpu.data    125204282                       # number of ReadReq hits
system.cpu.dcache.ReadReq_hits::total       125204282                       # number of ReadReq hits
system.cpu.dcache.ReadReq_misses::.cpu.data      3012604                       # number of ReadReq misses
system.cpu.dcache.ReadReq_misses::total       3012604                       # number of ReadReq misses
system.cpu.dcache.ReadReq_miss_latency::.cpu.data  37422052500                       # number of ReadReq miss cycles
system.cpu.dcache.ReadReq_miss_latency::total  37422052500                       # number of ReadReq miss cycles
system.cpu.dcache.ReadReq_accesses::.cpu.data    128216886                       # number of ReadReq accesses(hits+misses)
system.cpu.dcache.ReadReq_accesses::total    128216886                       # number of ReadReq accesses(hits+misses)
system.cpu.dcache.ReadReq_miss_rate::.cpu.data     0.023496                       # miss rate for ReadReq accesses
system.cpu.dcache.ReadReq_miss_rate::total     0.023496                       # miss rate for ReadReq accesses
system.cpu.dcache.ReadReq_avg_miss_latency::.cpu.data 12421.829255                       # average ReadReq miss latency
system.cpu.dcache.ReadReq_avg_miss_latency::total 12421.829255                       # average ReadReq miss latency
system.cpu.dcache.ReadReq_mshr_hits::.cpu.data      1607284                       # number of ReadReq MSHR hits
system.cpu.dcache.ReadReq_mshr_hits::total      1607284                       # number of ReadReq MSHR hits
system.cpu.dcache.ReadReq_mshr_misses::.cpu.data      1405320                       # number of ReadReq MSHR misses
system.cpu.dcache.ReadReq_mshr_misses::total      1405320                       # number of ReadReq MSHR misses
system.cpu.dcache.ReadReq_mshr_miss_latency::.cpu.data  18244726000                       # number of ReadReq MSHR miss cycles
system.cpu.dcache.ReadReq_mshr_miss_latency::total  18244726000                       # number of ReadReq MSHR miss cycles
system.cpu.dcache.ReadReq_mshr_miss_rate::.cpu.data     0.010960                       # mshr miss rate for ReadReq accesses
system.cpu.dcache.ReadReq_mshr_miss_rate::total     0.010960                       # mshr miss rate for ReadReq accesses
system.cpu.dcache.ReadReq_avg_mshr_miss_latency::.cpu.data 12982.613213                       # average ReadReq mshr miss latency
system.cpu.dcache.ReadReq_avg_mshr_miss_latency::total 12982.613213                       # average ReadReq mshr miss latency
system.cpu.dcache.WriteReq_hits::.cpu.data     70552633                       # number of WriteReq hits
system.cpu.dcache.WriteReq_hits::total       70552633                       # number of WriteReq hits
system.cpu.dcache.WriteReq_misses::.cpu.data      1982569                       # number of WriteReq misses
system.cpu.dcache.WriteReq_misses::total      1982569                       # number of WriteReq misses
system.cpu.dcache.WriteReq_miss_latency::.cpu.data  70321522259                       # number of WriteReq miss cycles
system.cpu.dcache.WriteReq_miss_latency::total  70321522259                       # number of WriteReq miss cycles
system.cpu.dcache.WriteReq_accesses::.cpu.data     72535202                       # number of WriteReq accesses(hits+misses)
system.cpu.dcache.WriteReq_accesses::total     72535202                       # number of WriteReq accesses(hits+misses)
system.cpu.dcache.WriteReq_miss_rate::.cpu.data     0.027333                       # miss rate for WriteReq accesses
system.cpu.dcache.WriteReq_miss_rate::total     0.027333                       # miss rate for WriteReq accesses
system.cpu.dcache.WriteReq_avg_miss_latency::.cpu.data 35469.899035                       # average WriteReq miss latency
system.cpu.dcache.WriteReq_avg_miss_latency::total 35469.899035                       # average WriteReq miss latency
system.cpu.dcache.WriteReq_mshr_hits::.cpu.data      1537646                       # number of WriteReq MSHR hits
system.cpu.dcache.WriteReq_mshr_hits::total      1537646                       # number of WriteReq MSHR hits
system.cpu.dcache.WriteReq_mshr_misses::.cpu.data       444923                       # number of WriteReq MSHR misses
system.cpu.dcache.WriteReq_mshr_misses::total       444923                       # number of WriteReq MSHR misses
system.cpu.dcache.WriteReq_mshr_miss_latency::.cpu.data  14572694763                       # number of WriteReq MSHR miss cycles
system.cpu.dcache.WriteReq_mshr_miss_latency::total  14572694763                       # number of WriteReq MSHR miss cycles
system.cpu.dcache.WriteReq_mshr_miss_rate::.cpu.data     0.006134                       # mshr miss rate for WriteReq accesses
system.cpu.dcache.WriteReq_mshr_miss_rate::total     0.006134                       # mshr miss rate for WriteReq accesses
system.cpu.dcache.WriteReq_avg_mshr_miss_latency::.cpu.data 32753.296105                       # average WriteReq mshr miss latency
system.cpu.dcache.WriteReq_avg_mshr_miss_latency::total 32753.296105                       # average WriteReq mshr miss latency
system.cpu.dcache.WriteLineReq_hits::.cpu.data         4533                       # number of WriteLineReq hits
system.cpu.dcache.WriteLineReq_hits::total         4533                       # number of WriteLineReq hits
system.cpu.dcache.WriteLineReq_misses::.cpu.data       201316                       # number of WriteLineReq misses
system.cpu.dcache.WriteLineReq_misses::total       201316                       # number of WriteLineReq misses
system.cpu.dcache.WriteLineReq_miss_latency::.cpu.data   5766042777                       # number of WriteLineReq miss cycles
system.cpu.dcache.WriteLineReq_miss_latency::total   5766042777                       # number of WriteLineReq miss cycles
system.cpu.dcache.WriteLineReq_accesses::.cpu.data       205849                       # number of WriteLineReq accesses(hits+misses)
system.cpu.dcache.WriteLineReq_accesses::total       205849                       # number of WriteLineReq accesses(hits+misses)
system.cpu.dcache.WriteLineReq_miss_rate::.cpu.data     0.977979                       # miss rate for WriteLineReq accesses
system.cpu.dcache.WriteLineReq_miss_rate::total     0.977979                       # miss rate for WriteLineReq accesses
system.cpu.dcache.WriteLineReq_avg_miss_latency::.cpu.data 28641.751162                       # average WriteLineReq miss latency
system.cpu.dcache.WriteLineReq_avg_miss_latency::total 28641.751162                       # average WriteLineReq miss latency
system.cpu.dcache.WriteLineReq_mshr_misses::.cpu.data       201316                       # number of WriteLineReq MSHR misses
system.cpu.dcache.WriteLineReq_mshr_misses::total       201316                       # number of WriteLineReq MSHR misses
system.cpu.dcache.WriteLineReq_mshr_miss_latency::.cpu.data   5564726777                       # number of WriteLineReq MSHR miss cycles
system.cpu.dcache.WriteLineReq_mshr_miss_latency::total   5564726777                       # number of WriteLineReq MSHR miss cycles
system.cpu.dcache.WriteLineReq_mshr_miss_rate::.cpu.data     0.977979                       # mshr miss rate for WriteLineReq accesses
system.cpu.dcache.WriteLineReq_mshr_miss_rate::total     0.977979                       # mshr miss rate for WriteLineReq accesses
system.cpu.dcache.WriteLineReq_avg_mshr_miss_latency::.cpu.data 27641.751162                       # average WriteLineReq mshr miss latency
system.cpu.dcache.WriteLineReq_avg_mshr_miss_latency::total 27641.751162                       # average WriteLineReq mshr miss latency
system.cpu.dcache.LoadLockedReq_hits::.cpu.data            6                       # number of LoadLockedReq hits
system.cpu.dcache.LoadLockedReq_hits::total            6                       # number of LoadLockedReq hits
system.cpu.dcache.LoadLockedReq_misses::.cpu.data            2                       # number of LoadLockedReq misses
system.cpu.dcache.LoadLockedReq_misses::total            2                       # number of LoadLockedReq misses
system.cpu.dcache.LoadLockedReq_miss_latency::.cpu.data        98500                       # number of LoadLockedReq miss cycles
system.cpu.dcache.LoadLockedReq_miss_latency::total        98500                       # number of LoadLockedReq miss cycles
system.cpu.dcache.LoadLockedReq_accesses::.cpu.data            8                       # number of LoadLockedReq accesses(hits+misses)
system.cpu.dcache.LoadLockedReq_accesses::total            8                       # number of LoadLockedReq accesses(hits+misses)
system.cpu.dcache.LoadLockedReq_miss_rate::.cpu.data     0.250000                       # miss rate for LoadLockedReq accesses
system.cpu.dcache.LoadLockedReq_miss_rate::total     0.250000                       # miss rate for LoadLockedReq accesses
system.cpu.dcache.LoadLockedReq_avg_miss_latency::.cpu.data        49250                       # average LoadLockedReq miss latency
system.cpu.dcache.LoadLockedReq_avg_miss_latency::total        49250                       # average LoadLockedReq miss latency
system.cpu.dcache.LoadLockedReq_mshr_misses::.cpu.data            2                       # number of LoadLockedReq MSHR misses
system.cpu.dcache.LoadLockedReq_mshr_misses::total            2                       # number of LoadLockedReq MSHR misses
system.cpu.dcache.LoadLockedReq_mshr_miss_latency::.cpu.data        96500                       # number of LoadLockedReq MSHR miss cycles
system.cpu.dcache.LoadLockedReq_mshr_miss_latency::total        96500                       # number of LoadLockedReq MSHR miss cycles
system.cpu.dcache.LoadLockedReq_mshr_miss_rate::.cpu.data     0.250000                       # mshr miss rate for LoadLockedReq accesses
system.cpu.dcache.LoadLockedReq_mshr_miss_rate::total     0.250000                       # mshr miss rate for LoadLockedReq accesses
system.cpu.dcache.LoadLockedReq_avg_mshr_miss_latency::.cpu.data        48250                       # average LoadLockedReq mshr miss latency
system.cpu.dcache.LoadLockedReq_avg_mshr_miss_latency::total        48250                       # average LoadLockedReq mshr miss latency
system.cpu.dcache.StoreCondReq_hits::.cpu.data            4                       # number of StoreCondReq hits
system.cpu.dcache.StoreCondReq_hits::total            4                       # number of StoreCondReq hits
system.cpu.dcache.StoreCondReq_accesses::.cpu.data            4                       # number of StoreCondReq accesses(hits+misses)
system.cpu.dcache.StoreCondReq_accesses::total            4                       # number of StoreCondReq accesses(hits+misses)
system.cpu.dcache.SwapReq_hits::.cpu.data        29281                       # number of SwapReq hits
system.cpu.dcache.SwapReq_hits::total           29281                       # number of SwapReq hits
system.cpu.dcache.SwapReq_misses::.cpu.data          117                       # number of SwapReq misses
system.cpu.dcache.SwapReq_misses::total           117                       # number of SwapReq misses
system.cpu.dcache.SwapReq_miss_latency::.cpu.data      1593500                       # number of SwapReq miss cycles
system.cpu.dcache.SwapReq_miss_latency::total      1593500                       # number of SwapReq miss cycles
system.cpu.dcache.SwapReq_accesses::.cpu.data        29398                       # number of SwapReq accesses(hits+misses)
system.cpu.dcache.SwapReq_accesses::total        29398                       # number of SwapReq accesses(hits+misses)
system.cpu.dcache.SwapReq_miss_rate::.cpu.data     0.003980                       # miss rate for SwapReq accesses
system.cpu.dcache.SwapReq_miss_rate::total     0.003980                       # miss rate for SwapReq accesses
system.cpu.dcache.SwapReq_avg_miss_latency::.cpu.data 13619.658120                       # average SwapReq miss latency
system.cpu.dcache.SwapReq_avg_miss_latency::total 13619.658120                       # average SwapReq miss latency
system.cpu.dcache.SwapReq_mshr_misses::.cpu.data          117                       # number of SwapReq MSHR misses
system.cpu.dcache.SwapReq_mshr_misses::total          117                       # number of SwapReq MSHR misses
system.cpu.dcache.SwapReq_mshr_miss_latency::.cpu.data      1476500                       # number of SwapReq MSHR miss cycles
system.cpu.dcache.SwapReq_mshr_miss_latency::total      1476500                       # number of SwapReq MSHR miss cycles
system.cpu.dcache.SwapReq_mshr_miss_rate::.cpu.data     0.003980                       # mshr miss rate for SwapReq accesses
system.cpu.dcache.SwapReq_mshr_miss_rate::total     0.003980                       # mshr miss rate for SwapReq accesses
system.cpu.dcache.SwapReq_avg_mshr_miss_latency::.cpu.data 12619.658120                       # average SwapReq mshr miss latency
system.cpu.dcache.SwapReq_avg_mshr_miss_latency::total 12619.658120                       # average SwapReq mshr miss latency
system.cpu.dcache.ghosttags.tagsinuse               0                       # Cycle average of tags in use
system.cpu.dcache.ghosttags.total_refs              0                       # Total number of references to valid blocks.
system.cpu.dcache.ghosttags.sampled_refs            0                       # Sample count of references to valid blocks.
system.cpu.dcache.ghosttags.avg_refs              nan                       # Average number of references to valid blocks.
system.cpu.dcache.ghosttags.warmup_cycle            0                       # Cycle when the warmup percentage was hit.
system.cpu.dcache.ghosttags.tag_accesses            0                       # Number of tag accesses
system.cpu.dcache.ghosttags.data_accesses            0                       # Number of data accesses
system.cpu.dcache.ghosttags.power_state.pwrStateResidencyTicks::UNDEFINED 196882174500                       # Cumulative time (in ticks) in various power states
system.cpu.dcache.power_state.pwrStateResidencyTicks::UNDEFINED 196882174500                       # Cumulative time (in ticks) in various power states
system.cpu.dcache.tags.tagsinuse           511.945194                       # Cycle average of tags in use
system.cpu.dcache.tags.total_refs           197842782                       # Total number of references to valid blocks.
system.cpu.dcache.tags.sampled_refs           2051278                       # Sample count of references to valid blocks.
system.cpu.dcache.tags.avg_refs             96.448547                       # Average number of references to valid blocks.
system.cpu.dcache.tags.warmup_cycle            180500                       # Cycle when the warmup percentage was hit.
system.cpu.dcache.tags.occ_blocks::.cpu.data   511.945194                       # Average occupied blocks per requestor
system.cpu.dcache.tags.occ_percent::.cpu.data     0.999893                       # Average percentage of cache occupancy
system.cpu.dcache.tags.occ_percent::total     0.999893                       # Average percentage of cache occupancy
system.cpu.dcache.tags.occ_task_id_blocks::1024          512                       # Occupied blocks per task id
system.cpu.dcache.tags.age_task_id_blocks_1024::0           49                       # Occupied blocks per task id
system.cpu.dcache.tags.age_task_id_blocks_1024::1          287                       # Occupied blocks per task id
system.cpu.dcache.tags.age_task_id_blocks_1024::2          165                       # Occupied blocks per task id
system.cpu.dcache.tags.age_task_id_blocks_1024::3            4                       # Occupied blocks per task id
system.cpu.dcache.tags.age_task_id_blocks_1024::4            7                       # Occupied blocks per task id
system.cpu.dcache.tags.occ_task_id_percent::1024            1                       # Percentage of cache occupancy per task id
system.cpu.dcache.tags.tag_accesses        1609950054                       # Number of tag accesses
system.cpu.dcache.tags.data_accesses       1609950054                       # Number of data accesses
system.cpu.dcache.tags.power_state.pwrStateResidencyTicks::UNDEFINED 196882174500                       # Cumulative time (in ticks) in various power states
system.cpu.decode.idleCycles                201722274                       # Number of cycles decode is idle
system.cpu.decode.blockedCycles              38826338                       # Number of cycles decode is blocked
system.cpu.decode.runCycles                 122394453                       # Number of cycles decode is running
system.cpu.decode.unblockCycles               4949205                       # Number of cycles decode is unblocking
system.cpu.decode.squashCycles                5564671                       # Number of cycles decode is squashing
system.cpu.decode.branchResolved             57949164                       # Number of times decode resolved a  branch
system.cpu.decode.branchMispred               1140083                       # Number of times decode detected a branch misprediction
system.cpu.decode.decodedInsts              713583006                       # Number of instructions handled by decode
system.cpu.decode.squashedInsts               3124927                       # Number of squashed instructions handled by decode
system.cpu.dtb.instHits                             0                       # ITB inst hits
system.cpu.dtb.instMisses                           0                       # ITB inst misses
system.cpu.dtb.readHits                             0                       # DTB read hits
system.cpu.dtb.readMisses                           0                       # DTB read misses
system.cpu.dtb.writeHits                            0                       # DTB write hits
system.cpu.dtb.writeMisses                          0                       # DTB write misses
system.cpu.dtb.inserts                              0                       # Number of times an entry is inserted into the TLB
system.cpu.dtb.flushTlb                             0                       # Number of times complete TLB was flushed
system.cpu.dtb.flushTlbMva                          0                       # Number of times TLB was flushed by MVA
system.cpu.dtb.flushTlbMvaAsid                      0                       # Number of times TLB was flushed by MVA & ASID
system.cpu.dtb.flushTlbAsid                         0                       # Number of times TLB was flushed by ASID
system.cpu.dtb.flushedEntries                       0                       # Number of entries that have been flushed from TLB
system.cpu.dtb.alignFaults                          0                       # Number of TLB faults due to alignment restrictions
system.cpu.dtb.prefetchFaults                       0                       # Number of TLB faults due to prefetch
system.cpu.dtb.domainFaults                         0                       # Number of TLB faults due to domain restrictions
system.cpu.dtb.permsFaults                          0                       # Number of TLB faults due to permissions restrictions
system.cpu.dtb.readAccesses                         0                       # DTB read accesses
system.cpu.dtb.writeAccesses                        0                       # DTB write accesses
system.cpu.dtb.instAccesses                         0                       # ITB inst accesses
system.cpu.dtb.hits                                 0                       # Total TLB (inst and data) hits
system.cpu.dtb.misses                               0                       # Total TLB (inst and data) misses
system.cpu.dtb.accesses                             0                       # Total TLB (inst and data) accesses
system.cpu.dtb.stage2_mmu.stage2_tlb.instHits            0                       # ITB inst hits
system.cpu.dtb.stage2_mmu.stage2_tlb.instMisses            0                       # ITB inst misses
system.cpu.dtb.stage2_mmu.stage2_tlb.readHits            0                       # DTB read hits
system.cpu.dtb.stage2_mmu.stage2_tlb.readMisses            0                       # DTB read misses
system.cpu.dtb.stage2_mmu.stage2_tlb.writeHits            0                       # DTB write hits
system.cpu.dtb.stage2_mmu.stage2_tlb.writeMisses            0                       # DTB write misses
system.cpu.dtb.stage2_mmu.stage2_tlb.inserts            0                       # Number of times an entry is inserted into the TLB
system.cpu.dtb.stage2_mmu.stage2_tlb.flushTlb            0                       # Number of times complete TLB was flushed
system.cpu.dtb.stage2_mmu.stage2_tlb.flushTlbMva            0                       # Number of times TLB was flushed by MVA
system.cpu.dtb.stage2_mmu.stage2_tlb.flushTlbMvaAsid            0                       # Number of times TLB was flushed by MVA & ASID
system.cpu.dtb.stage2_mmu.stage2_tlb.flushTlbAsid            0                       # Number of times TLB was flushed by ASID
system.cpu.dtb.stage2_mmu.stage2_tlb.flushedEntries            0                       # Number of entries that have been flushed from TLB
system.cpu.dtb.stage2_mmu.stage2_tlb.alignFaults            0                       # Number of TLB faults due to alignment restrictions
system.cpu.dtb.stage2_mmu.stage2_tlb.prefetchFaults            0                       # Number of TLB faults due to prefetch
system.cpu.dtb.stage2_mmu.stage2_tlb.domainFaults            0                       # Number of TLB faults due to domain restrictions
system.cpu.dtb.stage2_mmu.stage2_tlb.permsFaults            0                       # Number of TLB faults due to permissions restrictions
system.cpu.dtb.stage2_mmu.stage2_tlb.readAccesses            0                       # DTB read accesses
system.cpu.dtb.stage2_mmu.stage2_tlb.writeAccesses            0                       # DTB write accesses
system.cpu.dtb.stage2_mmu.stage2_tlb.instAccesses            0                       # ITB inst accesses
system.cpu.dtb.stage2_mmu.stage2_tlb.hits            0                       # Total TLB (inst and data) hits
system.cpu.dtb.stage2_mmu.stage2_tlb.misses            0                       # Total TLB (inst and data) misses
system.cpu.dtb.stage2_mmu.stage2_tlb.accesses            0                       # Total TLB (inst and data) accesses
system.cpu.dtb.stage2_mmu.stage2_tlb.walker.walks            0                       # Table walker walks requested
system.cpu.dtb.stage2_mmu.stage2_tlb.walker.requestOrigin_Requested::Data            0                       # Table walker requests started/completed, data/inst
system.cpu.dtb.stage2_mmu.stage2_tlb.walker.requestOrigin_Requested::Inst            0                       # Table walker requests started/completed, data/inst
system.cpu.dtb.stage2_mmu.stage2_tlb.walker.requestOrigin_Requested::total            0                       # Table walker requests started/completed, data/inst
system.cpu.dtb.stage2_mmu.stage2_tlb.walker.requestOrigin_Completed::Data            0                       # Table walker requests started/completed, data/inst
system.cpu.dtb.stage2_mmu.stage2_tlb.walker.requestOrigin_Completed::Inst            0                       # Table walker requests started/completed, data/inst
system.cpu.dtb.stage2_mmu.stage2_tlb.walker.requestOrigin_Completed::total            0                       # Table walker requests started/completed, data/inst
system.cpu.dtb.stage2_mmu.stage2_tlb.walker.requestOrigin::total            0                       # Table walker requests started/completed, data/inst
system.cpu.dtb.stage2_mmu.stage2_tlb.walker.power_state.pwrStateResidencyTicks::UNDEFINED 196882174500                       # Cumulative time (in ticks) in various power states
system.cpu.dtb.walker.walks                         0                       # Table walker walks requested
system.cpu.dtb.walker.requestOrigin_Requested::Data            0                       # Table walker requests started/completed, data/inst
system.cpu.dtb.walker.requestOrigin_Requested::Inst            0                       # Table walker requests started/completed, data/inst
system.cpu.dtb.walker.requestOrigin_Requested::total            0                       # Table walker requests started/completed, data/inst
system.cpu.dtb.walker.requestOrigin_Completed::Data            0                       # Table walker requests started/completed, data/inst
system.cpu.dtb.walker.requestOrigin_Completed::Inst            0                       # Table walker requests started/completed, data/inst
system.cpu.dtb.walker.requestOrigin_Completed::total            0                       # Table walker requests started/completed, data/inst
system.cpu.dtb.walker.requestOrigin::total            0                       # Table walker requests started/completed, data/inst
system.cpu.dtb.walker.power_state.pwrStateResidencyTicks::UNDEFINED 196882174500                       # Cumulative time (in ticks) in various power states
system.cpu.fetch.icacheStallCycles          213041949                       # Number of cycles fetch is stalled on an Icache miss
system.cpu.fetch.insts                      650616639                       # Number of instructions fetch has processed
system.cpu.fetch.branches                   157331229                       # Number of branches that fetch encountered
system.cpu.fetch.predictedBranches           67760523                       # Number of branches that fetch has predicted taken
system.cpu.fetch.cycles                     153722116                       # Number of cycles fetch has run and was not squashing or blocked
system.cpu.fetch.squashCycles                13375916                       # Number of cycles fetch has spent squashing
system.cpu.fetch.miscStallCycles                 1169                       # Number of cycles fetch has spent waiting on interrupts,or bad addresses, or out of MSHRs
system.cpu.fetch.pendingTrapStallCycles          2207                       # Number of stall cycles due to pending traps
system.cpu.fetch.icacheWaitRetryStallCycles         1542                       # Number of stall cycles due to full MSHR
system.cpu.fetch.cacheLines                  81648274                       # Number of cache lines fetched
system.cpu.fetch.icacheSquashes               3857351                       # Number of outstanding Icache misses that were squashed
system.cpu.fetch.nisnDist::samples          373456941                       # Number of instructions fetched each cycle (Total)
system.cpu.fetch.nisnDist::mean              1.980697                       # Number of instructions fetched each cycle (Total)
system.cpu.fetch.nisnDist::stdev             3.056181                       # Number of instructions fetched each cycle (Total)
system.cpu.fetch.nisnDist::underflows               0      0.00%      0.00% # Number of instructions fetched each cycle (Total)
system.cpu.fetch.nisnDist::0                237190917     63.51%     63.51% # Number of instructions fetched each cycle (Total)
system.cpu.fetch.nisnDist::1                 15532672      4.16%     67.67% # Number of instructions fetched each cycle (Total)
system.cpu.fetch.nisnDist::2                 12722435      3.41%     71.08% # Number of instructions fetched each cycle (Total)
system.cpu.fetch.nisnDist::3                 12050311      3.23%     74.30% # Number of instructions fetched each cycle (Total)
system.cpu.fetch.nisnDist::4                 11586089      3.10%     77.41% # Number of instructions fetched each cycle (Total)
system.cpu.fetch.nisnDist::5                  7601616      2.04%     79.44% # Number of instructions fetched each cycle (Total)
system.cpu.fetch.nisnDist::6                 14469127      3.87%     83.32% # Number of instructions fetched each cycle (Total)
system.cpu.fetch.nisnDist::7                  7020816      1.88%     85.20% # Number of instructions fetched each cycle (Total)
system.cpu.fetch.nisnDist::8                 55282958     14.80%    100.00% # Number of instructions fetched each cycle (Total)
system.cpu.fetch.nisnDist::overflows                0      0.00%    100.00% # Number of instructions fetched each cycle (Total)
system.cpu.fetch.nisnDist::min_value                0                       # Number of instructions fetched each cycle (Total)
system.cpu.fetch.nisnDist::max_value                8                       # Number of instructions fetched each cycle (Total)
system.cpu.fetch.nisnDist::total            373456941                       # Number of instructions fetched each cycle (Total)
system.cpu.fetch.branchRate                  0.399557                       # Number of branch fetches per cycle
system.cpu.fetch.rate                        1.652299                       # Number of inst fetches per cycle
system.cpu.icache.demand_hits::.cpu.inst     73561623                       # number of demand (read+write) hits
system.cpu.icache.demand_hits::total         73561623                       # number of demand (read+write) hits
system.cpu.icache.overall_hits::.cpu.inst     73561623                       # number of overall hits
system.cpu.icache.overall_hits::total        73561623                       # number of overall hits
system.cpu.icache.demand_misses::.cpu.inst      8086631                       # number of demand (read+write) misses
system.cpu.icache.demand_misses::total        8086631                       # number of demand (read+write) misses
system.cpu.icache.overall_misses::.cpu.inst      8086631                       # number of overall misses
system.cpu.icache.overall_misses::total       8086631                       # number of overall misses
system.cpu.icache.demand_miss_latency::.cpu.inst 104408253397                       # number of demand (read+write) miss cycles
system.cpu.icache.demand_miss_latency::total 104408253397                       # number of demand (read+write) miss cycles
system.cpu.icache.overall_miss_latency::.cpu.inst 104408253397                       # number of overall miss cycles
system.cpu.icache.overall_miss_latency::total 104408253397                       # number of overall miss cycles
system.cpu.icache.demand_accesses::.cpu.inst     81648254                       # number of demand (read+write) accesses
system.cpu.icache.demand_accesses::total     81648254                       # number of demand (read+write) accesses
system.cpu.icache.overall_accesses::.cpu.inst     81648254                       # number of overall (read+write) accesses
system.cpu.icache.overall_accesses::total     81648254                       # number of overall (read+write) accesses
system.cpu.icache.demand_miss_rate::.cpu.inst     0.099042                       # miss rate for demand accesses
system.cpu.icache.demand_miss_rate::total     0.099042                       # miss rate for demand accesses
system.cpu.icache.overall_miss_rate::.cpu.inst     0.099042                       # miss rate for overall accesses
system.cpu.icache.overall_miss_rate::total     0.099042                       # miss rate for overall accesses
system.cpu.icache.demand_avg_miss_latency::.cpu.inst 12911.217712                       # average overall miss latency
system.cpu.icache.demand_avg_miss_latency::total 12911.217712                       # average overall miss latency
system.cpu.icache.overall_avg_miss_latency::.cpu.inst 12911.217712                       # average overall miss latency
system.cpu.icache.overall_avg_miss_latency::total 12911.217712                       # average overall miss latency
system.cpu.icache.blocked_cycles::no_mshrs        35392                       # number of cycles access was blocked
system.cpu.icache.blocked_cycles::no_targets            0                       # number of cycles access was blocked
system.cpu.icache.blocked::no_mshrs              4342                       # number of cycles access was blocked
system.cpu.icache.blocked::no_targets               0                       # number of cycles access was blocked
system.cpu.icache.avg_blocked_cycles::no_mshrs     8.151082                       # average number of cycles each access was blocked
system.cpu.icache.avg_blocked_cycles::no_targets          nan                       # average number of cycles each access was blocked
system.cpu.icache.ghost_timestamp_misses            0                       # number of times timestamp policy causes a block to be inaccessible
system.cpu.icache.ghost_commits                     0                       # number of cache lines moved from ghost to main
system.cpu.icache.same_leapfrogs                    0                       # number of times leapfrogging occurs with a shared MSHR request
system.cpu.icache.writebacks::.writebacks      7563201                       # number of writebacks
system.cpu.icache.writebacks::total           7563201                       # number of writebacks
system.cpu.icache.demand_mshr_hits::.cpu.inst       522712                       # number of demand (read+write) MSHR hits
system.cpu.icache.demand_mshr_hits::total       522712                       # number of demand (read+write) MSHR hits
system.cpu.icache.overall_mshr_hits::.cpu.inst       522712                       # number of overall MSHR hits
system.cpu.icache.overall_mshr_hits::total       522712                       # number of overall MSHR hits
system.cpu.icache.demand_mshr_misses::.cpu.inst      7563919                       # number of demand (read+write) MSHR misses
system.cpu.icache.demand_mshr_misses::total      7563919                       # number of demand (read+write) MSHR misses
system.cpu.icache.overall_mshr_misses::.cpu.inst      7563919                       # number of overall MSHR misses
system.cpu.icache.overall_mshr_misses::total      7563919                       # number of overall MSHR misses
system.cpu.icache.demand_mshr_miss_latency::.cpu.inst  93173389931                       # number of demand (read+write) MSHR miss cycles
system.cpu.icache.demand_mshr_miss_latency::total  93173389931                       # number of demand (read+write) MSHR miss cycles
system.cpu.icache.overall_mshr_miss_latency::.cpu.inst  93173389931                       # number of overall MSHR miss cycles
system.cpu.icache.overall_mshr_miss_latency::total  93173389931                       # number of overall MSHR miss cycles
system.cpu.icache.demand_mshr_miss_rate::.cpu.inst     0.092640                       # mshr miss rate for demand accesses
system.cpu.icache.demand_mshr_miss_rate::total     0.092640                       # mshr miss rate for demand accesses
system.cpu.icache.overall_mshr_miss_rate::.cpu.inst     0.092640                       # mshr miss rate for overall accesses
system.cpu.icache.overall_mshr_miss_rate::total     0.092640                       # mshr miss rate for overall accesses
system.cpu.icache.demand_avg_mshr_miss_latency::.cpu.inst 12318.136925                       # average overall mshr miss latency
system.cpu.icache.demand_avg_mshr_miss_latency::total 12318.136925                       # average overall mshr miss latency
system.cpu.icache.overall_avg_mshr_miss_latency::.cpu.inst 12318.136925                       # average overall mshr miss latency
system.cpu.icache.overall_avg_mshr_miss_latency::total 12318.136925                       # average overall mshr miss latency
system.cpu.icache.replacements                7563201                       # number of replacements
system.cpu.icache.ReadReq_hits::.cpu.inst     73561623                       # number of ReadReq hits
[...]
system.mem_ctrls.dram.perBankWrBursts::2         7548                       # Per bank write bursts
system.mem_ctrls.dram.perBankWrBursts::3         7642                       # Per bank write bursts
system.mem_ctrls.dram.perBankWrBursts::4         7659                       # Per bank write bursts
system.mem_ctrls.dram.perBankWrBursts::5         7645                       # Per bank write bursts
system.mem_ctrls.dram.perBankWrBursts::6         7652                       # Per bank write bursts
system.mem_ctrls.dram.perBankWrBursts::7         7565                       # Per bank write bursts
system.mem_ctrls.dram.perBankWrBursts::8         7499                       # Per bank write bursts
system.mem_ctrls.dram.perBankWrBursts::9         7584                       # Per bank write bursts
system.mem_ctrls.dram.perBankWrBursts::10         7608                       # Per bank write bursts
system.mem_ctrls.dram.perBankWrBursts::11         7644                       # Per bank write bursts
system.mem_ctrls.dram.perBankWrBursts::12         7531                       # Per bank write bursts
system.mem_ctrls.dram.perBankWrBursts::13         7572                       # Per bank write bursts
system.mem_ctrls.dram.perBankWrBursts::14         7570                       # Per bank write bursts
system.mem_ctrls.dram.perBankWrBursts::15         7529                       # Per bank write bursts
system.mem_ctrls.dram.perBankWrBursts::16         7530                       # Per bank write bursts
system.mem_ctrls.dram.perBankWrBursts::17         7475                       # Per bank write bursts
system.mem_ctrls.dram.perBankWrBursts::18         7619                       # Per bank write bursts
system.mem_ctrls.dram.perBankWrBursts::19         7551                       # Per bank write bursts
system.mem_ctrls.dram.perBankWrBursts::20         7584                       # Per bank write bursts
system.mem_ctrls.dram.perBankWrBursts::21         7480                       # Per bank write bursts
system.mem_ctrls.dram.perBankWrBursts::22         7565                       # Per bank write bursts
system.mem_ctrls.dram.perBankWrBursts::23         7560                       # Per bank write bursts
system.mem_ctrls.dram.perBankWrBursts::24         7550                       # Per bank write bursts
system.mem_ctrls.dram.perBankWrBursts::25         7655                       # Per bank write bursts
system.mem_ctrls.dram.perBankWrBursts::26         7616                       # Per bank write bursts
system.mem_ctrls.dram.perBankWrBursts::27         7563                       # Per bank write bursts
system.mem_ctrls.dram.perBankWrBursts::28         7665                       # Per bank write bursts
system.mem_ctrls.dram.perBankWrBursts::29         7626                       # Per bank write bursts
system.mem_ctrls.dram.perBankWrBursts::30         7511                       # Per bank write bursts
system.mem_ctrls.dram.perBankWrBursts::31         7681                       # Per bank write bursts
system.mem_ctrls.dram.totQLat              6306059577                       # Total ticks spent queuing
system.mem_ctrls.dram.totBusLat             814117556                       # Total ticks spent in databus transfers
system.mem_ctrls.dram.totMemAccLat        10579932413                       # Total ticks spent from burst creation until serviced by the DRAM
system.mem_ctrls.dram.avgQLat                25809.28                       # Average queueing delay per DRAM burst
system.mem_ctrls.dram.avgBusLat               3332.00                       # Average bus latency per DRAM burst
system.mem_ctrls.dram.avgMemAccLat           43301.28                       # Average memory access latency per DRAM burst
system.mem_ctrls.dram.readRowHits              199685                       # Number of row buffer hits during reads
system.mem_ctrls.dram.writeRowHits             181603                       # Number of row buffer hits during writes
system.mem_ctrls.dram.readRowHitRate            81.73                       # Row buffer hit rate for reads
system.mem_ctrls.dram.writeRowHitRate           74.83                       # Row buffer hit rate for writes
system.mem_ctrls.dram.bytesPerActivate::samples       105722                       # Bytes accessed per row activation
system.mem_ctrls.dram.bytesPerActivate::mean   294.816367                       # Bytes accessed per row activation
system.mem_ctrls.dram.bytesPerActivate::gmean   183.734596                       # Bytes accessed per row activation
system.mem_ctrls.dram.bytesPerActivate::stdev   294.232877                       # Bytes accessed per row activation
system.mem_ctrls.dram.bytesPerActivate::0-127        37267     35.25%     35.25% # Bytes accessed per row activation
system.mem_ctrls.dram.bytesPerActivate::128-255        25395     24.02%     59.27% # Bytes accessed per row activation
system.mem_ctrls.dram.bytesPerActivate::256-383        12079     11.43%     70.70% # Bytes accessed per row activation
system.mem_ctrls.dram.bytesPerActivate::384-511         7553      7.14%     77.84% # Bytes accessed per row activation
system.mem_ctrls.dram.bytesPerActivate::512-639         6974      6.60%     84.44% # Bytes accessed per row activation
system.mem_ctrls.dram.bytesPerActivate::640-767         4006      3.79%     88.23% # Bytes accessed per row activation
system.mem_ctrls.dram.bytesPerActivate::768-895         3034      2.87%     91.10% # Bytes accessed per row activation
system.mem_ctrls.dram.bytesPerActivate::896-1023         2177      2.06%     93.15% # Bytes accessed per row activation
system.mem_ctrls.dram.bytesPerActivate::1024-1151         7237      6.85%    100.00% # Bytes accessed per row activation
system.mem_ctrls.dram.bytesPerActivate::total       105722                       # Bytes accessed per row activation
system.mem_ctrls.dram.bytesRead              15637312                       # Total number of bytes read from DRAM
system.mem_ctrls.dram.bytesWritten           15531392                       # Total number of bytes written to DRAM
system.mem_ctrls.dram.avgRdBW               79.424722                       # Average DRAM read bandwidth in MiBytes/s
system.mem_ctrls.dram.avgWrBW               78.886735                       # Average DRAM write bandwidth in MiBytes/s
system.mem_ctrls.dram.peakBW                 19207.00                       # Theoretical peak bandwidth in MiByte/s
system.mem_ctrls.dram.busUtil                    0.82                       # Data bus utilization in percentage
system.mem_ctrls.dram.busUtilRead                0.41                       # Data bus utilization in percentage for reads
system.mem_ctrls.dram.busUtilWrite               0.41                       # Data bus utilization in percentage for writes
system.mem_ctrls.dram.pageHitRate               78.29                       # Row buffer hit rate, read and write combined
system.mem_ctrls.dram.power_state.pwrStateResidencyTicks::UNDEFINED 196882174500                       # Cumulative time (in ticks) in various power states
system.mem_ctrls.dram.rank0.actEnergy    80109823.248000                       # Energy for activate commands per rank (pJ)
system.mem_ctrls.dram.rank0.preEnergy    141421896.604803                       # Energy for precharge commands per rank (pJ)
system.mem_ctrls.dram.rank0.readEnergy   333781050.153589                       # Energy for read commands per rank (pJ)
system.mem_ctrls.dram.rank0.writeEnergy  286500274.031993                       # Energy for write commands per rank (pJ)
system.mem_ctrls.dram.rank0.refreshEnergy 17090359282.740744                       # Energy for refresh commands per rank (pJ)
system.mem_ctrls.dram.rank0.actBackEnergy 31497112319.520836                       # Energy for active background per rank (pJ)
system.mem_ctrls.dram.rank0.preBackEnergy 42518142481.378761                       # Energy for precharge background per rank (pJ)
system.mem_ctrls.dram.rank0.actPowerDownEnergy            0                       # Energy for active power-down per rank (pJ)
system.mem_ctrls.dram.rank0.prePowerDownEnergy            0                       # Energy for precharge power-down per rank (pJ)
system.mem_ctrls.dram.rank0.selfRefreshEnergy            0                       # Energy for self refresh per rank (pJ)
system.mem_ctrls.dram.rank0.totalEnergy  91947427127.659622                       # Total energy per rank (pJ)
system.mem_ctrls.dram.rank0.averagePower   467.017531                       # Core power per rank (mW)
system.mem_ctrls.dram.rank0.totalIdleTime            0                       # Total Idle time Per DRAM Rank
system.mem_ctrls.dram.rank0.pwrStateTime::IDLE 129742169243                       # Time in different power states
system.mem_ctrls.dram.rank0.pwrStateTime::REF   8850450000                       # Time in different power states
system.mem_ctrls.dram.rank0.pwrStateTime::SREF            0                       # Time in different power states
system.mem_ctrls.dram.rank0.pwrStateTime::PRE_PDN            0                       # Time in different power states
system.mem_ctrls.dram.rank0.pwrStateTime::ACT  58289555257                       # Time in different power states
system.mem_ctrls.dram.rank0.pwrStateTime::ACT_PDN            0                       # Time in different power states
system.mem_ctrls.dram.rank1.actEnergy    84752085.600000                       # Energy for activate commands per rank (pJ)
system.mem_ctrls.dram.rank1.preEnergy    149620028.040005                       # Energy for precharge commands per rank (pJ)
system.mem_ctrls.dram.rank1.readEnergy   336400521.945581                       # Energy for read commands per rank (pJ)
system.mem_ctrls.dram.rank1.writeEnergy  285990717.935992                       # Energy for write commands per rank (pJ)
system.mem_ctrls.dram.rank1.refreshEnergy 17090359282.740744                       # Energy for refresh commands per rank (pJ)
system.mem_ctrls.dram.rank1.actBackEnergy 37603629673.144943                       # Energy for active background per rank (pJ)
system.mem_ctrls.dram.rank1.preBackEnergy 38302475678.876205                       # Energy for precharge background per rank (pJ)
system.mem_ctrls.dram.rank1.actPowerDownEnergy            0                       # Energy for active power-down per rank (pJ)
system.mem_ctrls.dram.rank1.prePowerDownEnergy            0                       # Energy for precharge power-down per rank (pJ)
system.mem_ctrls.dram.rank1.selfRefreshEnergy            0                       # Energy for self refresh per rank (pJ)
system.mem_ctrls.dram.rank1.totalEnergy  93853227988.268158                       # Total energy per rank (pJ)
system.mem_ctrls.dram.rank1.averagePower   476.697437                       # Core power per rank (mW)
system.mem_ctrls.dram.rank1.totalIdleTime            0                       # Total Idle time Per DRAM Rank
system.mem_ctrls.dram.rank1.pwrStateTime::IDLE 116783246213                       # Time in different power states
system.mem_ctrls.dram.rank1.pwrStateTime::REF   8850450000                       # Time in different power states
system.mem_ctrls.dram.rank1.pwrStateTime::SREF            0                       # Time in different power states
system.mem_ctrls.dram.rank1.pwrStateTime::PRE_PDN            0                       # Time in different power states
system.mem_ctrls.dram.rank1.pwrStateTime::ACT  71248478287                       # Time in different power states
system.mem_ctrls.dram.rank1.pwrStateTime::ACT_PDN            0                       # Time in different power states
system.mem_ctrls.power_state.pwrStateResidencyTicks::UNDEFINED 196882174500                       # Cumulative time (in ticks) in various power states
system.membus.trans_dist::ReadResp             139274                       # Transaction distribution
system.membus.trans_dist::WritebackDirty       242735                       # Transaction distribution
system.membus.trans_dist::CleanEvict            19046                       # Transaction distribution
system.membus.trans_dist::UpgradeReq              397                       # Transaction distribution
system.membus.trans_dist::ReadExReq            105066                       # Transaction distribution
system.membus.trans_dist::ReadExResp           105066                       # Transaction distribution
system.membus.trans_dist::ReadCleanReq         139274                       # Transaction distribution
system.membus.trans_dist::InvalidateReq        161810                       # Transaction distribution
system.membus.pkt_count_system.l2.mem_side_port::system.mem_ctrls.port       912668                       # Packet count per connected requestor and responder (bytes)
system.membus.pkt_count::total                 912668                       # Packet count per connected requestor and responder (bytes)
system.membus.pkt_size_system.l2.mem_side_port::system.mem_ctrls.port     31172800                       # Cumulative packet size per connected requestor and responder (bytes)
system.membus.pkt_size::total                31172800                       # Cumulative packet size per connected requestor and responder (bytes)
system.membus.snoops                                0                       # Total snoops (count)
system.membus.snoopTraffic                          0                       # Total snoop traffic (bytes)
system.membus.snoop_fanout::samples            406547                       # Request fanout histogram
system.membus.snoop_fanout::mean                    0                       # Request fanout histogram
system.membus.snoop_fanout::stdev                   0                       # Request fanout histogram
system.membus.snoop_fanout::underflows              0      0.00%      0.00% # Request fanout histogram
system.membus.snoop_fanout::0                  406547    100.00%    100.00% # Request fanout histogram
system.membus.snoop_fanout::1                       0      0.00%    100.00% # Request fanout histogram
system.membus.snoop_fanout::overflows               0      0.00%    100.00% # Request fanout histogram
system.membus.snoop_fanout::min_value               0                       # Request fanout histogram
system.membus.snoop_fanout::max_value               0                       # Request fanout histogram
system.membus.snoop_fanout::total              406547                       # Request fanout histogram
system.membus.power_state.pwrStateResidencyTicks::UNDEFINED 196882174500                       # Cumulative time (in ticks) in various power states
system.membus.reqLayer0.occupancy          1767688027                       # Layer occupancy (ticks)
system.membus.reqLayer0.utilization               0.9                       # Layer utilization (%)
system.membus.respLayer1.occupancy         1292114185                       # Layer occupancy (ticks)
system.membus.respLayer1.utilization              0.7                       # Layer utilization (%)
system.tol2bus.trans_dist::ReadResp           8968258                       # Transaction distribution
system.tol2bus.trans_dist::WritebackDirty      1832107                       # Transaction distribution
system.tol2bus.trans_dist::WritebackClean      8024595                       # Transaction distribution
system.tol2bus.trans_dist::CleanEvict           19046                       # Transaction distribution
system.tol2bus.trans_dist::HardPFReq           248819                       # Transaction distribution
system.tol2bus.trans_dist::HardPFResp               1                       # Transaction distribution
system.tol2bus.trans_dist::UpgradeReq             400                       # Transaction distribution
system.tol2bus.trans_dist::UpgradeResp            400                       # Transaction distribution
system.tol2bus.trans_dist::ReadExReq           432782                       # Transaction distribution
system.tol2bus.trans_dist::ReadExResp          432782                       # Transaction distribution
system.tol2bus.trans_dist::ReadCleanReq       7563919                       # Transaction distribution
system.tol2bus.trans_dist::ReadSharedReq      1404339                       # Transaction distribution
system.tol2bus.trans_dist::InvalidateReq       214157                       # Transaction distribution
system.tol2bus.trans_dist::InvalidateResp       214157                       # Transaction distribution
system.tol2bus.pkt_count_system.cpu.icache.mem_side_port::system.l2.cpu_side_port     22690640                       # Packet count per connected requestor and responder (bytes)
system.tol2bus.pkt_count_system.cpu.dcache.mem_side_port::system.l2.cpu_side_port      6154123                       # Packet count per connected requestor and responder (bytes)
system.tol2bus.pkt_count::total              28844763                       # Packet count per connected requestor and responder (bytes)
system.tol2bus.pkt_size_system.cpu.icache.mem_side_port::system.l2.cpu_side_port    968110144                       # Cumulative packet size per connected requestor and responder (bytes)
system.tol2bus.pkt_size_system.cpu.dcache.mem_side_port::system.l2.cpu_side_port    248824832                       # Cumulative packet size per connected requestor and responder (bytes)
system.tol2bus.pkt_size::total             1216934976                       # Cumulative packet size per connected requestor and responder (bytes)
system.tol2bus.snoops                          511000                       # Total snoops (count)
system.tol2bus.snoopTraffic                  15560640                       # Total snoop traffic (bytes)
system.tol2bus.snoop_fanout::samples         10126197                       # Request fanout histogram
system.tol2bus.snoop_fanout::mean            0.010918                       # Request fanout histogram
system.tol2bus.snoop_fanout::stdev           0.103946                       # Request fanout histogram
system.tol2bus.snoop_fanout::underflows             0      0.00%      0.00% # Request fanout histogram
system.tol2bus.snoop_fanout::0               10015663     98.91%     98.91% # Request fanout histogram
system.tol2bus.snoop_fanout::1                 110506      1.09%    100.00% # Request fanout histogram
system.tol2bus.snoop_fanout::2                     28      0.00%    100.00% # Request fanout histogram
system.tol2bus.snoop_fanout::overflows              0      0.00%    100.00% # Request fanout histogram
system.tol2bus.snoop_fanout::min_value              0                       # Request fanout histogram
system.tol2bus.snoop_fanout::max_value              2                       # Request fanout histogram
system.tol2bus.snoop_fanout::total           10126197                       # Request fanout histogram
system.tol2bus.power_state.pwrStateResidencyTicks::UNDEFINED 196882174500                       # Cumulative time (in ticks) in various power states
system.tol2bus.reqLayer0.occupancy        19228749505                       # Layer occupancy (ticks)
system.tol2bus.reqLayer0.utilization              9.8                       # Layer utilization (%)
system.tol2bus.respLayer0.occupancy       11347806137                       # Layer occupancy (ticks)
system.tol2bus.respLayer0.utilization             5.8                       # Layer utilization (%)
system.tol2bus.respLayer1.occupancy        2863895126                       # Layer occupancy (ticks)
system.tol2bus.respLayer1.utilization             1.5                       # Layer utilization (%)
system.tol2bus.snoopLayer0.occupancy             1507                       # Layer occupancy (ticks)
system.tol2bus.snoopLayer0.utilization            0.0                       # Layer utilization (%)
system.voltage_domain.voltage                       1                       # Voltage in Volts

---------- End Simulation Statistics   ----------
