
---------- Begin Simulation Statistics ----------
final_tick                               5749795421500                       # Number of ticks from beginning of simulation (restored from checkpoints and never reset)
host_inst_rate                                 512243                       # Simulator instruction rate (inst/s)
host_mem_usage                               18738572                       # Number of bytes of host memory used
host_op_rate                                   557110                       # Simulator op (including micro ops) rate (op/s)
host_seconds                                  3904.40                       # Real time elapsed on the host
host_tick_rate                              123152752                       # Simulator tick rate (ticks/s)
sim_freq                                 1000000000000                       # Frequency of simulated ticks
sim_insts                                  2000000021                       # Number of instructions simulated
sim_ops                                    2175179208                       # Number of ops (including micro ops) simulated
sim_seconds                                  0.480838                       # Number of seconds simulated
sim_ticks                                480837581500                       # Number of ticks simulated
system.cpu.Branches                                 1                       # Number of branches fetched
system.cpu.committedInsts                          20                       # Number of instructions committed
system.cpu.committedOps                            20                       # Number of ops (including micro ops) committed
system.cpu.dcache.MSHRs.leapFrogMisses            309                       # number of false blocks from MSHR
system.cpu.icache.MSHRs.leapFrogMisses              0                       # number of false blocks from MSHR
system.cpu.idle_fraction                            0                       # Percentage of idle cycles
system.cpu.not_idle_fraction                        1                       # Percentage of non-idle cycles
system.cpu.numCycles                               20                       # number of cpu cycles simulated
system.cpu.numWorkItemsCompleted                    0                       # number of work items this cpu completed
system.cpu.numWorkItemsStarted                      0                       # number of work items this cpu started
system.cpu.num_busy_cycles                         20                       # Number of busy cycles
system.cpu.num_conditional_control_insts            0                       # number of instructions that are conditional controls
system.cpu.num_fp_alu_accesses                      0                       # Number of float alu accesses
system.cpu.num_fp_insts                             0                       # number of float instructions
system.cpu.num_fp_register_reads                    0                       # number of times the floating registers were read
system.cpu.num_fp_register_writes                   0                       # number of times the floating registers were written
system.cpu.num_func_calls                           0                       # number of times a function call or return occured
system.cpu.num_idle_cycles                          0                       # Number of idle cycles
system.cpu.num_int_alu_accesses                     8                       # Number of integer alu accesses
system.cpu.num_int_insts                            8                       # number of integer instructions
system.cpu.num_int_register_reads                  45                       # number of times the integer registers were read
system.cpu.num_int_register_writes                 13                       # number of times the integer registers were written
system.cpu.num_load_insts                           3                       # Number of load instructions
system.cpu.num_mem_refs                             3                       # number of memory refs
system.cpu.num_store_insts                          0                       # Number of store instructions
system.cpu.num_vec_alu_accesses                    16                       # Number of vector alu accesses
system.cpu.num_vec_insts                           16                       # number of vector instructions
system.cpu.num_vec_register_reads                  16                       # number of times the vector registers were read
system.cpu.num_vec_register_writes                 15                       # number of times the vector registers were written
system.cpu.op_class::No_OpClass                     0      0.00%      0.00% # Class of executed instruction
system.cpu.op_class::IntAlu                         4     20.00%     20.00% # Class of executed instruction
system.cpu.op_class::IntMult                        0      0.00%     20.00% # Class of executed instruction
system.cpu.op_class::IntDiv                         0      0.00%     20.00% # Class of executed instruction
system.cpu.op_class::FloatAdd                       3     15.00%     35.00% # Class of executed instruction
system.cpu.op_class::FloatCmp                       0      0.00%     35.00% # Class of executed instruction
system.cpu.op_class::FloatCvt                       2     10.00%     45.00% # Class of executed instruction
system.cpu.op_class::FloatMult                      3     15.00%     60.00% # Class of executed instruction
system.cpu.op_class::FloatMultAcc                   1      5.00%     65.00% # Class of executed instruction
system.cpu.op_class::FloatDiv                       0      0.00%     65.00% # Class of executed instruction
system.cpu.op_class::FloatMisc                      4     20.00%     85.00% # Class of executed instruction
system.cpu.op_class::FloatSqrt                      0      0.00%     85.00% # Class of executed instruction
system.cpu.op_class::SimdAdd                        0      0.00%     85.00% # Class of executed instruction
system.cpu.op_class::SimdAddAcc                     0      0.00%     85.00% # Class of executed instruction
system.cpu.op_class::SimdAlu                        0      0.00%     85.00% # Class of executed instruction
system.cpu.op_class::SimdCmp                        0      0.00%     85.00% # Class of executed instruction
system.cpu.op_class::SimdCvt                        0      0.00%     85.00% # Class of executed instruction
system.cpu.op_class::SimdMisc                       0      0.00%     85.00% # Class of executed instruction
system.cpu.op_class::SimdMult                       0      0.00%     85.00% # Class of executed instruction
system.cpu.op_class::SimdMultAcc                    0      0.00%     85.00% # Class of executed instruction
system.cpu.op_class::SimdShift                      0      0.00%     85.00% # Class of executed instruction
system.cpu.op_class::SimdShiftAcc                   0      0.00%     85.00% # Class of executed instruction
system.cpu.op_class::SimdDiv                        0      0.00%     85.00% # Class of executed instruction
system.cpu.op_class::SimdSqrt                       0      0.00%     85.00% # Class of executed instruction
system.cpu.op_class::SimdFloatAdd                   0      0.00%     85.00% # Class of executed instruction
system.cpu.op_class::SimdFloatAlu                   0      0.00%     85.00% # Class of executed instruction
system.cpu.op_class::SimdFloatCmp                   0      0.00%     85.00% # Class of executed instruction
system.cpu.op_class::SimdFloatCvt                   0      0.00%     85.00% # Class of executed instruction
system.cpu.op_class::SimdFloatDiv                   0      0.00%     85.00% # Class of executed instruction
system.cpu.op_class::SimdFloatMisc                  0      0.00%     85.00% # Class of executed instruction
system.cpu.op_class::SimdFloatMult                  0      0.00%     85.00% # Class of executed instruction
system.cpu.op_class::SimdFloatMultAcc               0      0.00%     85.00% # Class of executed instruction
system.cpu.op_class::SimdFloatSqrt                  0      0.00%     85.00% # Class of executed instruction
system.cpu.op_class::SimdReduceAdd                  0      0.00%     85.00% # Class of executed instruction
system.cpu.op_class::SimdReduceAlu                  0      0.00%     85.00% # Class of executed instruction
system.cpu.op_class::SimdReduceCmp                  0      0.00%     85.00% # Class of executed instruction
system.cpu.op_class::SimdFloatReduceAdd             0      0.00%     85.00% # Class of executed instruction
system.cpu.op_class::SimdFloatReduceCmp             0      0.00%     85.00% # Class of executed instruction
system.cpu.op_class::SimdAes                        0      0.00%     85.00% # Class of executed instruction
system.cpu.op_class::SimdAesMix                     0      0.00%     85.00% # Class of executed instruction
system.cpu.op_class::SimdSha1Hash                   0      0.00%     85.00% # Class of executed instruction
system.cpu.op_class::SimdSha1Hash2                  0      0.00%     85.00% # Class of executed instruction
system.cpu.op_class::SimdSha256Hash                 0      0.00%     85.00% # Class of executed instruction
system.cpu.op_class::SimdSha256Hash2                0      0.00%     85.00% # Class of executed instruction
system.cpu.op_class::SimdShaSigma2                  0      0.00%     85.00% # Class of executed instruction
system.cpu.op_class::SimdShaSigma3                  0      0.00%     85.00% # Class of executed instruction
system.cpu.op_class::SimdPredAlu                    0      0.00%     85.00% # Class of executed instruction
system.cpu.op_class::MemRead                        3     15.00%    100.00% # Class of executed instruction
system.cpu.op_class::MemWrite                       0      0.00%    100.00% # Class of executed instruction
system.cpu.op_class::FloatMemRead                   0      0.00%    100.00% # Class of executed instruction
system.cpu.op_class::FloatMemWrite                  0      0.00%    100.00% # Class of executed instruction
system.cpu.op_class::IprAccess                      0      0.00%    100.00% # Class of executed instruction
system.cpu.op_class::InstPrefetch                   0      0.00%    100.00% # Class of executed instruction
system.cpu.op_class::total                         20                       # Class of executed instruction
system.cpu.workload.numSyscalls                     0                       # Number of system calls
system.l2.MSHRs.leapFrogMisses                      0                       # number of false blocks from MSHR
system.membus.snoop_filter.hit_multi_requests            0                       # Number of requests hitting in the snoop filter with multiple (>1) holders of the requested data.
system.membus.snoop_filter.hit_multi_snoops            0                       # Number of snoops hitting in the snoop filter with multiple (>1) holders of the requested data.
system.membus.snoop_filter.hit_single_requests      7545041                       # Number of requests hitting in the snoop filter with a single holder of the requested data.
system.membus.snoop_filter.hit_single_snoops            0                       # Number of snoops hitting in the snoop filter with a single holder of the requested data.
system.membus.snoop_filter.tot_requests      15221183                       # Total number of requests made to the snoop filter.
system.membus.snoop_filter.tot_snoops               0                       # Total number of snoops made to the snoop filter.
system.switch_cpus.cc_regfile_reads         470643396                       # number of cc regfile reads
system.switch_cpus.cc_regfile_writes        470656443                       # number of cc regfile writes
system.switch_cpus.committedInsts          2000000001                       # Number of Instructions Simulated
system.switch_cpus.committedOps            2175179188                       # Number of Ops (including micro ops) Simulated
system.switch_cpus.cpi                       0.480838                       # CPI: Cycles Per Instruction
system.switch_cpus.cpi_total                 0.480838                       # CPI: Total CPI of All Threads
system.switch_cpus.idleCycles                   16173                       # Total number of cycles that the CPU has spent unscheduled due to idling
system.switch_cpus.iew.branchMispredicts        66675                       # Number of branch mispredicts detected at execute
system.switch_cpus.iew.exec_branches        277092264                       # Number of branches executed
system.switch_cpus.iew.exec_nop                172613                       # number of nop insts executed
system.switch_cpus.iew.exec_rate             2.324541                       # Inst execution rate
system.switch_cpus.iew.exec_refs            391866377                       # number of memory reference insts executed
system.switch_cpus.iew.exec_stores          108328433                       # Number of stores executed
system.switch_cpus.iew.exec_swp                     0                       # number of swp insts executed
system.switch_cpus.iew.iewBlockCycles         9873571                       # Number of cycles IEW is blocking
system.switch_cpus.iew.iewDispLoadInsts     223436964                       # Number of dispatched load instructions
system.switch_cpus.iew.iewDispNonSpecInsts            0                       # Number of dispatched non-speculative instructions
system.switch_cpus.iew.iewDispSquashedInsts        23979                       # Number of squashed instructions skipped by dispatch
system.switch_cpus.iew.iewDispStoreInsts    108352593                       # Number of dispatched store instructions
system.switch_cpus.iew.iewDispatchedInsts   2175696040                       # Number of instructions dispatched to IQ
system.switch_cpus.iew.iewExecLoadInsts     283537944                       # Number of load instructions executed
system.switch_cpus.iew.iewExecSquashedInsts        32012                       # Number of squashed instructions skipped in execute
system.switch_cpus.iew.iewExecutedInsts    2235453418                       # Number of executed instructions
system.switch_cpus.iew.iewIQFullEvents         255309                       # Number of times the IQ has become full, causing a stall
system.switch_cpus.iew.iewIdleCycles                0                       # Number of cycles IEW is idle
system.switch_cpus.iew.iewLSQFullEvents      22260258                       # Number of times the LSQ has become full, causing a stall
system.switch_cpus.iew.iewSquashCycles          67777                       # Number of cycles IEW is squashing
system.switch_cpus.iew.iewUnblockCycles      22739401                       # Number of cycles IEW is unblocking
system.switch_cpus.iew.memOrderViolationEvents         1193                       # Number of memory order violations
system.switch_cpus.iew.predictedNotTakenIncorrect          446                       # Number of branches that were predicted not taken incorrectly
system.switch_cpus.iew.predictedTakenIncorrect        66229                       # Number of branches that were predicted taken incorrectly
system.switch_cpus.iew.wb_consumers        2600540118                       # num instructions consuming a value
system.switch_cpus.iew.wb_count            2175311106                       # cumulative count of insts written-back
system.switch_cpus.iew.wb_fanout             0.613239                       # average fanout of values written-back
system.switch_cpus.iew.wb_producers        1594753198                       # num instructions producing a value
system.switch_cpus.iew.wb_rate               2.262002                       # insts written-back per cycle
system.switch_cpus.iew.wb_sent             2175311891                       # cumulative count of insts sent to commit
system.switch_cpus.int_regfile_reads       1370546008                       # number of integer regfile reads
system.switch_cpus.int_regfile_writes       985426387                       # number of integer regfile writes
system.switch_cpus.ipc                       2.079704                       # IPC: Instructions Per Cycle
system.switch_cpus.ipc_total                 2.079704                       # IPC: Total IPC of All Threads
system.switch_cpus.iq.FU_type_0::No_OpClass           44      0.00%      0.00% # Type of FU issued
system.switch_cpus.iq.FU_type_0::IntAlu    1061778974     47.50%     47.50% # Type of FU issued
system.switch_cpus.iq.FU_type_0::IntMult          443      0.00%     47.50% # Type of FU issued
system.switch_cpus.iq.FU_type_0::IntDiv             0      0.00%     47.50% # Type of FU issued
system.switch_cpus.iq.FU_type_0::FloatAdd    123430364      5.52%     53.02% # Type of FU issued
system.switch_cpus.iq.FU_type_0::FloatCmp            0      0.00%     53.02% # Type of FU issued
system.switch_cpus.iq.FU_type_0::FloatCvt     45726770      2.05%     55.06% # Type of FU issued
system.switch_cpus.iq.FU_type_0::FloatMult    136222329      6.09%     61.16% # Type of FU issued
system.switch_cpus.iq.FU_type_0::FloatMultAcc    194779974      8.71%     69.87% # Type of FU issued
system.switch_cpus.iq.FU_type_0::FloatDiv     34786810      1.56%     71.43% # Type of FU issued
system.switch_cpus.iq.FU_type_0::FloatMisc    240507750     10.76%     82.18% # Type of FU issued
system.switch_cpus.iq.FU_type_0::FloatSqrt            0      0.00%     82.18% # Type of FU issued
system.switch_cpus.iq.FU_type_0::SimdAdd            0      0.00%     82.18% # Type of FU issued
system.switch_cpus.iq.FU_type_0::SimdAddAcc            0      0.00%     82.18% # Type of FU issued
system.switch_cpus.iq.FU_type_0::SimdAlu            0      0.00%     82.18% # Type of FU issued
system.switch_cpus.iq.FU_type_0::SimdCmp            0      0.00%     82.18% # Type of FU issued
system.switch_cpus.iq.FU_type_0::SimdCvt            0      0.00%     82.18% # Type of FU issued
system.switch_cpus.iq.FU_type_0::SimdMisc        43014      0.00%     82.19% # Type of FU issued
system.switch_cpus.iq.FU_type_0::SimdMult            0      0.00%     82.19% # Type of FU issued
system.switch_cpus.iq.FU_type_0::SimdMultAcc            0      0.00%     82.19% # Type of FU issued
system.switch_cpus.iq.FU_type_0::SimdShift      6333548      0.28%     82.47% # Type of FU issued
system.switch_cpus.iq.FU_type_0::SimdShiftAcc            0      0.00%     82.47% # Type of FU issued
system.switch_cpus.iq.FU_type_0::SimdDiv            0      0.00%     82.47% # Type of FU issued
system.switch_cpus.iq.FU_type_0::SimdSqrt            0      0.00%     82.47% # Type of FU issued
system.switch_cpus.iq.FU_type_0::SimdFloatAdd            0      0.00%     82.47% # Type of FU issued
system.switch_cpus.iq.FU_type_0::SimdFloatAlu            0      0.00%     82.47% # Type of FU issued
system.switch_cpus.iq.FU_type_0::SimdFloatCmp            0      0.00%     82.47% # Type of FU issued
system.switch_cpus.iq.FU_type_0::SimdFloatCvt            0      0.00%     82.47% # Type of FU issued
system.switch_cpus.iq.FU_type_0::SimdFloatDiv            0      0.00%     82.47% # Type of FU issued
system.switch_cpus.iq.FU_type_0::SimdFloatMisc            0      0.00%     82.47% # Type of FU issued
system.switch_cpus.iq.FU_type_0::SimdFloatMult            0      0.00%     82.47% # Type of FU issued
system.switch_cpus.iq.FU_type_0::SimdFloatMultAcc            0      0.00%     82.47% # Type of FU issued
system.switch_cpus.iq.FU_type_0::SimdFloatSqrt            0      0.00%     82.47% # Type of FU issued
system.switch_cpus.iq.FU_type_0::SimdReduceAdd            0      0.00%     82.47% # Type of FU issued
system.switch_cpus.iq.FU_type_0::SimdReduceAlu            0      0.00%     82.47% # Type of FU issued
system.switch_cpus.iq.FU_type_0::SimdReduceCmp            0      0.00%     82.47% # Type of FU issued
system.switch_cpus.iq.FU_type_0::SimdFloatReduceAdd            0      0.00%     82.47% # Type of FU issued
system.switch_cpus.iq.FU_type_0::SimdFloatReduceCmp            0      0.00%     82.47% # Type of FU issued
system.switch_cpus.iq.FU_type_0::SimdAes            0      0.00%     82.47% # Type of FU issued
system.switch_cpus.iq.FU_type_0::SimdAesMix            0      0.00%     82.47% # Type of FU issued
system.switch_cpus.iq.FU_type_0::SimdSha1Hash            0      0.00%     82.47% # Type of FU issued
system.switch_cpus.iq.FU_type_0::SimdSha1Hash2            0      0.00%     82.47% # Type of FU issued
system.switch_cpus.iq.FU_type_0::SimdSha256Hash            0      0.00%     82.47% # Type of FU issued
system.switch_cpus.iq.FU_type_0::SimdSha256Hash2            0      0.00%     82.47% # Type of FU issued
system.switch_cpus.iq.FU_type_0::SimdShaSigma2            0      0.00%     82.47% # Type of FU issued
system.switch_cpus.iq.FU_type_0::SimdShaSigma3            0      0.00%     82.47% # Type of FU issued
system.switch_cpus.iq.FU_type_0::SimdPredAlu            0      0.00%     82.47% # Type of FU issued
system.switch_cpus.iq.FU_type_0::MemRead    283538451     12.68%     95.15% # Type of FU issued
system.switch_cpus.iq.FU_type_0::MemWrite    108336970      4.85%    100.00% # Type of FU issued
system.switch_cpus.iq.FU_type_0::FloatMemRead            0      0.00%    100.00% # Type of FU issued
system.switch_cpus.iq.FU_type_0::FloatMemWrite            0      0.00%    100.00% # Type of FU issued
system.switch_cpus.iq.FU_type_0::IprAccess            0      0.00%    100.00% # Type of FU issued
system.switch_cpus.iq.FU_type_0::InstPrefetch            0      0.00%    100.00% # Type of FU issued
system.switch_cpus.iq.FU_type_0::total     2235485441                       # Type of FU issued
system.switch_cpus.iq.fp_alu_accesses               0                       # Number of floating point alu accesses
system.switch_cpus.iq.fp_inst_queue_reads            0                       # Number of floating instruction queue reads
system.switch_cpus.iq.fp_inst_queue_wakeup_accesses            0                       # Number of floating instruction queue wakeup accesses
system.switch_cpus.iq.fp_inst_queue_writes            0                       # Number of floating instruction queue writes
system.switch_cpus.iq.fu_busy_cnt           223250466                       # FU busy when requested
system.switch_cpus.iq.fu_busy_rate           0.099867                       # FU busy rate (busy events/executed inst)
system.switch_cpus.iq.fu_full::No_OpClass            0      0.00%      0.00% # attempts to use FU when none available
system.switch_cpus.iq.fu_full::IntAlu        12709109      5.69%      5.69% # attempts to use FU when none available
system.switch_cpus.iq.fu_full::IntMult              6      0.00%      5.69% # attempts to use FU when none available
system.switch_cpus.iq.fu_full::IntDiv               0      0.00%      5.69% # attempts to use FU when none available
system.switch_cpus.iq.fu_full::FloatAdd             0      0.00%      5.69% # attempts to use FU when none available
system.switch_cpus.iq.fu_full::FloatCmp             0      0.00%      5.69% # attempts to use FU when none available
system.switch_cpus.iq.fu_full::FloatCvt             0      0.00%      5.69% # attempts to use FU when none available
system.switch_cpus.iq.fu_full::FloatMult     53734485     24.07%     29.76% # attempts to use FU when none available
system.switch_cpus.iq.fu_full::FloatMultAcc     47199028     21.14%     50.90% # attempts to use FU when none available
system.switch_cpus.iq.fu_full::FloatDiv       1985143      0.89%     51.79% # attempts to use FU when none available
system.switch_cpus.iq.fu_full::FloatMisc    105579198     47.29%     99.08% # attempts to use FU when none available
system.switch_cpus.iq.fu_full::FloatSqrt            0      0.00%     99.08% # attempts to use FU when none available
system.switch_cpus.iq.fu_full::SimdAdd              0      0.00%     99.08% # attempts to use FU when none available
system.switch_cpus.iq.fu_full::SimdAddAcc            0      0.00%     99.08% # attempts to use FU when none available
system.switch_cpus.iq.fu_full::SimdAlu              0      0.00%     99.08% # attempts to use FU when none available
system.switch_cpus.iq.fu_full::SimdCmp              0      0.00%     99.08% # attempts to use FU when none available
system.switch_cpus.iq.fu_full::SimdCvt              0      0.00%     99.08% # attempts to use FU when none available
system.switch_cpus.iq.fu_full::SimdMisc             0      0.00%     99.08% # attempts to use FU when none available
system.switch_cpus.iq.fu_full::SimdMult             0      0.00%     99.08% # attempts to use FU when none available
system.switch_cpus.iq.fu_full::SimdMultAcc            0      0.00%     99.08% # attempts to use FU when none available
system.switch_cpus.iq.fu_full::SimdShift            0      0.00%     99.08% # attempts to use FU when none available
system.switch_cpus.iq.fu_full::SimdShiftAcc            0      0.00%     99.08% # attempts to use FU when none available
system.switch_cpus.iq.fu_full::SimdDiv              0      0.00%     99.08% # attempts to use FU when none available
system.switch_cpus.iq.fu_full::SimdSqrt             0      0.00%     99.08% # attempts to use FU when none available
system.switch_cpus.iq.fu_full::SimdFloatAdd            0      0.00%     99.08% # attempts to use FU when none available
system.switch_cpus.iq.fu_full::SimdFloatAlu            0      0.00%     99.08% # attempts to use FU when none available
system.switch_cpus.iq.fu_full::SimdFloatCmp            0      0.00%     99.08% # attempts to use FU when none available
system.switch_cpus.iq.fu_full::SimdFloatCvt            0      0.00%     99.08% # attempts to use FU when none available
system.switch_cpus.iq.fu_full::SimdFloatDiv            0      0.00%     99.08% # attempts to use FU when none available
system.switch_cpus.iq.fu_full::SimdFloatMisc            0      0.00%     99.08% # attempts to use FU when none available
system.switch_cpus.iq.fu_full::SimdFloatMult            0      0.00%     99.08% # attempts to use FU when none available
system.switch_cpus.iq.fu_full::SimdFloatMultAcc            0      0.00%     99.08% # attempts to use FU when none available
system.switch_cpus.iq.fu_full::SimdFloatSqrt            0      0.00%     99.08% # attempts to use FU when none available
system.switch_cpus.iq.fu_full::SimdReduceAdd            0      0.00%     99.08% # attempts to use FU when none available
system.switch_cpus.iq.fu_full::SimdReduceAlu            0      0.00%     99.08% # attempts to use FU when none available
system.switch_cpus.iq.fu_full::SimdReduceCmp            0      0.00%     99.08% # attempts to use FU when none available
system.switch_cpus.iq.fu_full::SimdFloatReduceAdd            0      0.00%     99.08% # attempts to use FU when none available
system.switch_cpus.iq.fu_full::SimdFloatReduceCmp            0      0.00%     99.08% # attempts to use FU when none available
system.switch_cpus.iq.fu_full::SimdAes              0      0.00%     99.08% # attempts to use FU when none available
system.switch_cpus.iq.fu_full::SimdAesMix            0      0.00%     99.08% # attempts to use FU when none available
system.switch_cpus.iq.fu_full::SimdSha1Hash            0      0.00%     99.08% # attempts to use FU when none available
system.switch_cpus.iq.fu_full::SimdSha1Hash2            0      0.00%     99.08% # attempts to use FU when none available
system.switch_cpus.iq.fu_full::SimdSha256Hash            0      0.00%     99.08% # attempts to use FU when none available
system.switch_cpus.iq.fu_full::SimdSha256Hash2            0      0.00%     99.08% # attempts to use FU when none available
system.switch_cpus.iq.fu_full::SimdShaSigma2            0      0.00%     99.08% # attempts to use FU when none available
system.switch_cpus.iq.fu_full::SimdShaSigma3            0      0.00%     99.08% # attempts to use FU when none available
system.switch_cpus.iq.fu_full::SimdPredAlu            0      0.00%     99.08% # attempts to use FU when none available
system.switch_cpus.iq.fu_full::MemRead         967025      0.43%     99.52% # attempts to use FU when none available
system.switch_cpus.iq.fu_full::MemWrite       1076472      0.48%    100.00% # attempts to use FU when none available
system.switch_cpus.iq.fu_full::FloatMemRead            0      0.00%    100.00% # attempts to use FU when none available
system.switch_cpus.iq.fu_full::FloatMemWrite            0      0.00%    100.00% # attempts to use FU when none available
system.switch_cpus.iq.fu_full::IprAccess            0      0.00%    100.00% # attempts to use FU when none available
system.switch_cpus.iq.fu_full::InstPrefetch            0      0.00%    100.00% # attempts to use FU when none available
system.switch_cpus.iq.int_alu_accesses     1289622730                       # Number of integer alu accesses
system.switch_cpus.iq.int_inst_queue_reads   3526752164                       # Number of integer instruction queue reads
system.switch_cpus.iq.int_inst_queue_wakeup_accesses   1215323035                       # Number of integer instruction queue wakeup accesses
system.switch_cpus.iq.int_inst_queue_writes   1215707261                       # Number of integer instruction queue writes
system.switch_cpus.iq.iqInstsAdded         2175523427                       # Number of instructions added to the IQ (excludes non-spec)
system.switch_cpus.iq.iqInstsIssued        2235485441                       # Number of instructions issued
system.switch_cpus.iq.iqSquashedInstsExamined       344099                       # Number of squashed instructions iterated over during squash; mainly for profiling
system.switch_cpus.iq.iqSquashedInstsIssued         4404                       # Number of squashed instructions issued
system.switch_cpus.iq.iqSquashedOperandsExamined       455871                       # Number of squashed operands that are examined and possibly removed from graph
system.switch_cpus.iq.issued_per_cycle::samples    961658970                       # Number of insts issued each cycle
system.switch_cpus.iq.issued_per_cycle::mean     2.324614                       # Number of insts issued each cycle
system.switch_cpus.iq.issued_per_cycle::stdev     2.223529                       # Number of insts issued each cycle
system.switch_cpus.iq.issued_per_cycle::underflows            0      0.00%      0.00% # Number of insts issued each cycle
system.switch_cpus.iq.issued_per_cycle::0    240908374     25.05%     25.05% # Number of insts issued each cycle
system.switch_cpus.iq.issued_per_cycle::1    203257401     21.14%     46.19% # Number of insts issued each cycle
system.switch_cpus.iq.issued_per_cycle::2    150468921     15.65%     61.83% # Number of insts issued each cycle
system.switch_cpus.iq.issued_per_cycle::3    111394392     11.58%     73.42% # Number of insts issued each cycle
system.switch_cpus.iq.issued_per_cycle::4     87074745      9.05%     82.47% # Number of insts issued each cycle
system.switch_cpus.iq.issued_per_cycle::5     62551602      6.50%     88.98% # Number of insts issued each cycle
system.switch_cpus.iq.issued_per_cycle::6     40970091      4.26%     93.24% # Number of insts issued each cycle
system.switch_cpus.iq.issued_per_cycle::7     30038066      3.12%     96.36% # Number of insts issued each cycle
system.switch_cpus.iq.issued_per_cycle::8     34995378      3.64%    100.00% # Number of insts issued each cycle
system.switch_cpus.iq.issued_per_cycle::overflows            0      0.00%    100.00% # Number of insts issued each cycle
system.switch_cpus.iq.issued_per_cycle::min_value            0                       # Number of insts issued each cycle
system.switch_cpus.iq.issued_per_cycle::max_value            8                       # Number of insts issued each cycle
system.switch_cpus.iq.issued_per_cycle::total    961658970                       # Number of insts issued each cycle
system.switch_cpus.iq.rate                   2.324574                       # Inst issue rate
system.switch_cpus.iq.vec_alu_accesses     1169113133                       # Number of vector alu accesses
system.switch_cpus.iq.vec_inst_queue_reads   2129132547                       # Number of vector instruction queue reads
system.switch_cpus.iq.vec_inst_queue_wakeup_accesses    959988071                       # Number of vector instruction queue wakeup accesses
system.switch_cpus.iq.vec_inst_queue_writes    960161458                       # Number of vector instruction queue writes
system.switch_cpus.memDep0.conflictingLoads          357                       # Number of conflicting loads.
system.switch_cpus.memDep0.conflictingStores            0                       # Number of conflicting stores.
system.switch_cpus.memDep0.insertedLoads    223436964                       # Number of loads inserted to the mem dependence unit.
system.switch_cpus.memDep0.insertedStores    108352593                       # Number of stores inserted to the mem dependence unit.
system.switch_cpus.misc_regfile_reads      6850705053                       # number of misc regfile reads
system.switch_cpus.misc_regfile_writes      555873986                       # number of misc regfile writes
system.switch_cpus.numCycles                961675143                       # number of cpu cycles simulated
system.switch_cpus.numWorkItemsCompleted            0                       # number of work items this cpu completed
system.switch_cpus.numWorkItemsStarted              0                       # number of work items this cpu started
system.switch_cpus.timesIdled                     535                       # Number of times that the entire CPU went into an idle state and unscheduled itself
system.switch_cpus.vec_regfile_reads       1390117748                       # number of vector regfile reads
system.switch_cpus.vec_regfile_writes       908821339                       # number of vector regfile writes
system.tol2bus.snoop_filter.hit_multi_requests            0                       # Number of requests hitting in the snoop filter with multiple (>1) holders of the requested data.
system.tol2bus.snoop_filter.hit_multi_snoops            0                       # Number of snoops hitting in the snoop filter with multiple (>1) holders of the requested data.
system.tol2bus.snoop_filter.hit_single_requests      7181763                       # Number of requests hitting in the snoop filter with a single holder of the requested data.
system.tol2bus.snoop_filter.hit_single_snoops       110147                       # Number of snoops hitting in the snoop filter with a single holder of the requested data.
system.tol2bus.snoop_filter.tot_requests     14363961                       # Total number of requests made to the snoop filter.
system.tol2bus.snoop_filter.tot_snoops         110147                       # Total number of snoops made to the snoop filter.
system.clk_domain.clock                          1000                       # Clock period in ticks
system.cpu.dcache.demand_hits::.cpu.data            2                       # number of demand (read+write) hits
system.cpu.dcache.demand_hits::.switch_cpus.data    311443632                       # number of demand (read+write) hits
system.cpu.dcache.demand_hits::total        311443634                       # number of demand (read+write) hits
system.cpu.dcache.overall_hits::.cpu.data            2                       # number of overall hits
system.cpu.dcache.overall_hits::.switch_cpus.data    311443632                       # number of overall hits
system.cpu.dcache.overall_hits::total       311443634                       # number of overall hits
system.cpu.dcache.demand_misses::.cpu.data            1                       # number of demand (read+write) misses
system.cpu.dcache.demand_misses::.switch_cpus.data      8768784                       # number of demand (read+write) misses
system.cpu.dcache.demand_misses::total        8768785                       # number of demand (read+write) misses
system.cpu.dcache.overall_misses::.cpu.data            1                       # number of overall misses
system.cpu.dcache.overall_misses::.switch_cpus.data      8768784                       # number of overall misses
system.cpu.dcache.overall_misses::total       8768785                       # number of overall misses
system.cpu.dcache.demand_miss_latency::.switch_cpus.data 324501362977                       # number of demand (read+write) miss cycles
system.cpu.dcache.demand_miss_latency::total 324501362977                       # number of demand (read+write) miss cycles
system.cpu.dcache.overall_miss_latency::.switch_cpus.data 324501362977                       # number of overall miss cycles
system.cpu.dcache.overall_miss_latency::total 324501362977                       # number of overall miss cycles
system.cpu.dcache.demand_accesses::.cpu.data            3                       # number of demand (read+write) accesses
system.cpu.dcache.demand_accesses::.switch_cpus.data    320212416                       # number of demand (read+write) accesses
system.cpu.dcache.demand_accesses::total    320212419                       # number of demand (read+write) accesses
system.cpu.dcache.overall_accesses::.cpu.data            3                       # number of overall (read+write) accesses
system.cpu.dcache.overall_accesses::.switch_cpus.data    320212416                       # number of overall (read+write) accesses
system.cpu.dcache.overall_accesses::total    320212419                       # number of overall (read+write) accesses
system.cpu.dcache.demand_miss_rate::.cpu.data     0.333333                       # miss rate for demand accesses
system.cpu.dcache.demand_miss_rate::.switch_cpus.data     0.027384                       # miss rate for demand accesses
system.cpu.dcache.demand_miss_rate::total     0.027384                       # miss rate for demand accesses
system.cpu.dcache.overall_miss_rate::.cpu.data     0.333333                       # miss rate for overall accesses
system.cpu.dcache.overall_miss_rate::.switch_cpus.data     0.027384                       # miss rate for overall accesses
system.cpu.dcache.overall_miss_rate::total     0.027384                       # miss rate for overall accesses
system.cpu.dcache.demand_avg_miss_latency::.switch_cpus.data 37006.426772                       # average overall miss latency
system.cpu.dcache.demand_avg_miss_latency::total 37006.422552                       # average overall miss latency
system.cpu.dcache.overall_avg_miss_latency::.switch_cpus.data 37006.426772                       # average overall miss latency
system.cpu.dcache.overall_avg_miss_latency::total 37006.422552                       # average overall miss latency
system.cpu.dcache.blocked_cycles::no_mshrs     51963276                       # number of cycles access was blocked
system.cpu.dcache.blocked_cycles::no_targets            0                       # number of cycles access was blocked
system.cpu.dcache.blocked::no_mshrs           2744209                       # number of cycles access was blocked
system.cpu.dcache.blocked::no_targets               0                       # number of cycles access was blocked
system.cpu.dcache.avg_blocked_cycles::no_mshrs    18.935612                       # average number of cycles each access was blocked
system.cpu.dcache.avg_blocked_cycles::no_targets          nan                       # average number of cycles each access was blocked
system.cpu.dcache.ghost_timestamp_misses           18                       # number of times timestamp policy causes a block to be inaccessible
system.cpu.dcache.ghost_commits               1473172                       # number of cache lines moved from ghost to main
system.cpu.dcache.same_leapfrogs                   35                       # number of times leapfrogging occurs with a shared MSHR request
system.cpu.dcache.writebacks::.writebacks      8651820                       # number of writebacks
system.cpu.dcache.writebacks::total           8651820                       # number of writebacks
system.cpu.dcache.demand_mshr_hits::.switch_cpus.data      1586661                       # number of demand (read+write) MSHR hits
system.cpu.dcache.demand_mshr_hits::total      1586661                       # number of demand (read+write) MSHR hits
system.cpu.dcache.overall_mshr_hits::.switch_cpus.data      1586661                       # number of overall MSHR hits
system.cpu.dcache.overall_mshr_hits::total      1586661                       # number of overall MSHR hits
system.cpu.dcache.demand_mshr_misses::.switch_cpus.data      7182123                       # number of demand (read+write) MSHR misses
system.cpu.dcache.demand_mshr_misses::total      7182123                       # number of demand (read+write) MSHR misses
system.cpu.dcache.overall_mshr_misses::.switch_cpus.data      7182123                       # number of overall MSHR misses
system.cpu.dcache.overall_mshr_misses::total      7182123                       # number of overall MSHR misses
system.cpu.dcache.demand_mshr_miss_latency::.switch_cpus.data 197629514676                       # number of demand (read+write) MSHR miss cycles
system.cpu.dcache.demand_mshr_miss_latency::total 197629514676                       # number of demand (read+write) MSHR miss cycles
system.cpu.dcache.overall_mshr_miss_latency::.switch_cpus.data 197629514676                       # number of overall MSHR miss cycles
system.cpu.dcache.overall_mshr_miss_latency::total 197629514676                       # number of overall MSHR miss cycles
system.cpu.dcache.demand_mshr_miss_rate::.switch_cpus.data     0.022429                       # mshr miss rate for demand accesses
system.cpu.dcache.demand_mshr_miss_rate::total     0.022429                       # mshr miss rate for demand accesses
system.cpu.dcache.overall_mshr_miss_rate::.switch_cpus.data     0.022429                       # mshr miss rate for overall accesses
system.cpu.dcache.overall_mshr_miss_rate::total     0.022429                       # mshr miss rate for overall accesses
system.cpu.dcache.demand_avg_mshr_miss_latency::.switch_cpus.data 27516.865790                       # average overall mshr miss latency
system.cpu.dcache.demand_avg_mshr_miss_latency::total 27516.865790                       # average overall mshr miss latency
system.cpu.dcache.overall_avg_mshr_miss_latency::.switch_cpus.data 27516.865790                       # average overall mshr miss latency
system.cpu.dcache.overall_avg_mshr_miss_latency::total 27516.865790                       # average overall mshr miss latency
system.cpu.dcache.replacements                7178648                       # number of replacements
system.cpu.dcache.ReadReq_hits::.cpu.data            2                       # number of ReadReq hits
system.cpu.dcache.ReadReq_hits::.switch_cpus.data    210412450                       # number of ReadReq hits
system.cpu.dcache.ReadReq_hits::total       210412452                       # number of ReadReq hits
system.cpu.dcache.ReadReq_misses::.cpu.data            1                       # number of ReadReq misses
system.cpu.dcache.ReadReq_misses::.switch_cpus.data      1480725                       # number of ReadReq misses
system.cpu.dcache.ReadReq_misses::total       1480726                       # number of ReadReq misses
system.cpu.dcache.ReadReq_miss_latency::.switch_cpus.data  29366004500                       # number of ReadReq miss cycles
system.cpu.dcache.ReadReq_miss_latency::total  29366004500                       # number of ReadReq miss cycles
system.cpu.dcache.ReadReq_accesses::.cpu.data            3                       # number of ReadReq accesses(hits+misses)
system.cpu.dcache.ReadReq_accesses::.switch_cpus.data    211893175                       # number of ReadReq accesses(hits+misses)
system.cpu.dcache.ReadReq_accesses::total    211893178                       # number of ReadReq accesses(hits+misses)
system.cpu.dcache.ReadReq_miss_rate::.cpu.data     0.333333                       # miss rate for ReadReq accesses
system.cpu.dcache.ReadReq_miss_rate::.switch_cpus.data     0.006988                       # miss rate for ReadReq accesses
system.cpu.dcache.ReadReq_miss_rate::total     0.006988                       # miss rate for ReadReq accesses
system.cpu.dcache.ReadReq_avg_miss_latency::.switch_cpus.data 19832.179844                       # average ReadReq miss latency
system.cpu.dcache.ReadReq_avg_miss_latency::total 19832.166451                       # average ReadReq miss latency
system.cpu.dcache.ReadReq_mshr_hits::.switch_cpus.data         4716                       # number of ReadReq MSHR hits
system.cpu.dcache.ReadReq_mshr_hits::total         4716                       # number of ReadReq MSHR hits
system.cpu.dcache.ReadReq_mshr_misses::.switch_cpus.data      1476009                       # number of ReadReq MSHR misses
system.cpu.dcache.ReadReq_mshr_misses::total      1476009                       # number of ReadReq MSHR misses
system.cpu.dcache.ReadReq_mshr_miss_latency::.switch_cpus.data  27737658500                       # number of ReadReq MSHR miss cycles
system.cpu.dcache.ReadReq_mshr_miss_latency::total  27737658500                       # number of ReadReq MSHR miss cycles
system.cpu.dcache.ReadReq_mshr_miss_rate::.switch_cpus.data     0.006966                       # mshr miss rate for ReadReq accesses
system.cpu.dcache.ReadReq_mshr_miss_rate::total     0.006966                       # mshr miss rate for ReadReq accesses
system.cpu.dcache.ReadReq_avg_mshr_miss_latency::.switch_cpus.data 18792.336971                       # average ReadReq mshr miss latency
system.cpu.dcache.ReadReq_avg_mshr_miss_latency::total 18792.336971                       # average ReadReq mshr miss latency
system.cpu.dcache.WriteReq_hits::.switch_cpus.data    101031182                       # number of WriteReq hits
system.cpu.dcache.WriteReq_hits::total      101031182                       # number of WriteReq hits
system.cpu.dcache.WriteReq_misses::.switch_cpus.data      4695803                       # number of WriteReq misses
system.cpu.dcache.WriteReq_misses::total      4695803                       # number of WriteReq misses
system.cpu.dcache.WriteReq_miss_latency::.switch_cpus.data 202759109633                       # number of WriteReq miss cycles
system.cpu.dcache.WriteReq_miss_latency::total 202759109633                       # number of WriteReq miss cycles
system.cpu.dcache.WriteReq_accesses::.switch_cpus.data    105726985                       # number of WriteReq accesses(hits+misses)
system.cpu.dcache.WriteReq_accesses::total    105726985                       # number of WriteReq accesses(hits+misses)
system.cpu.dcache.WriteReq_miss_rate::.switch_cpus.data     0.044414                       # miss rate for WriteReq accesses
system.cpu.dcache.WriteReq_miss_rate::total     0.044414                       # miss rate for WriteReq accesses
system.cpu.dcache.WriteReq_avg_miss_latency::.switch_cpus.data 43178.793836                       # average WriteReq miss latency
system.cpu.dcache.WriteReq_avg_miss_latency::total 43178.793836                       # average WriteReq miss latency
system.cpu.dcache.WriteReq_mshr_hits::.switch_cpus.data      1581945                       # number of WriteReq MSHR hits
system.cpu.dcache.WriteReq_mshr_hits::total      1581945                       # number of WriteReq MSHR hits
system.cpu.dcache.WriteReq_mshr_misses::.switch_cpus.data      3113858                       # number of WriteReq MSHR misses
system.cpu.dcache.WriteReq_mshr_misses::total      3113858                       # number of WriteReq MSHR misses
system.cpu.dcache.WriteReq_mshr_miss_latency::.switch_cpus.data  80107863332                       # number of WriteReq MSHR miss cycles
system.cpu.dcache.WriteReq_mshr_miss_latency::total  80107863332                       # number of WriteReq MSHR miss cycles
system.cpu.dcache.WriteReq_mshr_miss_rate::.switch_cpus.data     0.029452                       # mshr miss rate for WriteReq accesses
system.cpu.dcache.WriteReq_mshr_miss_rate::total     0.029452                       # mshr miss rate for WriteReq accesses
system.cpu.dcache.WriteReq_avg_mshr_miss_latency::.switch_cpus.data 25726.241637                       # average WriteReq mshr miss latency
system.cpu.dcache.WriteReq_avg_mshr_miss_latency::total 25726.241637                       # average WriteReq mshr miss latency
system.cpu.dcache.WriteLineReq_misses::.switch_cpus.data      2592256                       # number of WriteLineReq misses
system.cpu.dcache.WriteLineReq_misses::total      2592256                       # number of WriteLineReq misses
system.cpu.dcache.WriteLineReq_miss_latency::.switch_cpus.data  92376248844                       # number of WriteLineReq miss cycles
system.cpu.dcache.WriteLineReq_miss_latency::total  92376248844                       # number of WriteLineReq miss cycles
system.cpu.dcache.WriteLineReq_accesses::.switch_cpus.data      2592256                       # number of WriteLineReq accesses(hits+misses)
system.cpu.dcache.WriteLineReq_accesses::total      2592256                       # number of WriteLineReq accesses(hits+misses)
system.cpu.dcache.WriteLineReq_miss_rate::.switch_cpus.data            1                       # miss rate for WriteLineReq accesses
system.cpu.dcache.WriteLineReq_miss_rate::total            1                       # miss rate for WriteLineReq accesses
system.cpu.dcache.WriteLineReq_avg_miss_latency::.switch_cpus.data 35635.465341                       # average WriteLineReq miss latency
system.cpu.dcache.WriteLineReq_avg_miss_latency::total 35635.465341                       # average WriteLineReq miss latency
system.cpu.dcache.WriteLineReq_mshr_misses::.switch_cpus.data      2592256                       # number of WriteLineReq MSHR misses
system.cpu.dcache.WriteLineReq_mshr_misses::total      2592256                       # number of WriteLineReq MSHR misses
system.cpu.dcache.WriteLineReq_mshr_miss_latency::.switch_cpus.data  89783992844                       # number of WriteLineReq MSHR miss cycles
system.cpu.dcache.WriteLineReq_mshr_miss_latency::total  89783992844                       # number of WriteLineReq MSHR miss cycles
system.cpu.dcache.WriteLineReq_mshr_miss_rate::.switch_cpus.data            1                       # mshr miss rate for WriteLineReq accesses
system.cpu.dcache.WriteLineReq_mshr_miss_rate::total            1                       # mshr miss rate for WriteLineReq accesses
system.cpu.dcache.WriteLineReq_avg_mshr_miss_latency::.switch_cpus.data 34635.465341                       # average WriteLineReq mshr miss latency
system.cpu.dcache.WriteLineReq_avg_mshr_miss_latency::total 34635.465341                       # average WriteLineReq mshr miss latency
system.cpu.dcache.ghosttags.tagsinuse    -3592575.161604                       # Cycle average of tags in use
system.cpu.dcache.ghosttags.total_refs              0                       # Total number of references to valid blocks.
system.cpu.dcache.ghosttags.sampled_refs            0                       # Sample count of references to valid blocks.
system.cpu.dcache.ghosttags.avg_refs              nan                       # Average number of references to valid blocks.
system.cpu.dcache.ghosttags.warmup_cycle 5268957997500                       # Cycle when the warmup percentage was hit.
system.cpu.dcache.ghosttags.occ_blocks::.switch_cpus.data 734266.530352                       # Average occupied blocks per requestor
system.cpu.dcache.ghosttags.occ_percent::.switch_cpus.data 22945.829073                       # Average percentage of cache occupancy
system.cpu.dcache.ghosttags.occ_percent::total 22945.829073                       # Average percentage of cache occupancy
system.cpu.dcache.ghosttags.tag_accesses     19990193                       # Number of tag accesses
system.cpu.dcache.ghosttags.data_accesses     19990193                       # Number of data accesses
system.cpu.dcache.ghosttags.repl_invalid            0                       # Number of initial replacements
system.cpu.dcache.ghosttags.repl_valid_tag            0                       # Number of local replacements
system.cpu.dcache.ghosttags.repl_valid_data            0                       # Number of global replacements
system.cpu.dcache.ghosttags.power_state.pwrStateResidencyTicks::UNDEFINED 5749795421500                       # Cumulative time (in ticks) in various power states
system.cpu.dcache.power_state.pwrStateResidencyTicks::UNDEFINED 5749795421500                       # Cumulative time (in ticks) in various power states
system.cpu.dcache.tags.tagsinuse         -733746.313979                       # Cycle average of tags in use
system.cpu.dcache.tags.total_refs           320099070                       # Total number of references to valid blocks.
system.cpu.dcache.tags.sampled_refs           8655151                       # Sample count of references to valid blocks.
system.cpu.dcache.tags.avg_refs             36.983649                       # Average number of references to valid blocks.
system.cpu.dcache.tags.warmup_cycle      5268957841000                       # Cycle when the warmup percentage was hit.
system.cpu.dcache.tags.occ_blocks::.cpu.data     0.092890                       # Average occupied blocks per requestor
system.cpu.dcache.tags.occ_blocks::.switch_cpus.data -733746.406869                       # Average occupied blocks per requestor
system.cpu.dcache.tags.occ_percent::.cpu.data     0.000181                       # Average percentage of cache occupancy
system.cpu.dcache.tags.occ_percent::.switch_cpus.data -1433.098451                       # Average percentage of cache occupancy
system.cpu.dcache.tags.occ_percent::total -1433.098269                       # Average percentage of cache occupancy
system.cpu.dcache.tags.occ_task_id_blocks::1024          512                       # Occupied blocks per task id
system.cpu.dcache.tags.age_task_id_blocks_1024::0          126                       # Occupied blocks per task id
system.cpu.dcache.tags.age_task_id_blocks_1024::1          376                       # Occupied blocks per task id
system.cpu.dcache.tags.age_task_id_blocks_1024::2            1                       # Occupied blocks per task id
system.cpu.dcache.tags.age_task_id_blocks_1024::4            9                       # Occupied blocks per task id
system.cpu.dcache.tags.occ_task_id_percent::1024            1                       # Percentage of cache occupancy per task id
system.cpu.dcache.tags.tag_accesses        2568878512                       # Number of tag accesses
system.cpu.dcache.tags.data_accesses       2568878512                       # Number of data accesses
system.cpu.dcache.tags.repl_invalid                 0                       # Number of initial replacements
system.cpu.dcache.tags.repl_valid_tag               0                       # Number of local replacements
system.cpu.dcache.tags.repl_valid_data              0                       # Number of global replacements
system.cpu.dcache.tags.power_state.pwrStateResidencyTicks::UNDEFINED 5749795421500                       # Cumulative time (in ticks) in various power states
system.cpu.dtb.instHits                             0                       # ITB inst hits
system.cpu.dtb.instMisses                           0                       # ITB inst misses
system.cpu.dtb.readHits                             0                       # DTB read hits
system.cpu.dtb.readMisses                           0                       # DTB read misses
system.cpu.dtb.writeHits                            0                       # DTB write hits
system.cpu.dtb.writeMisses                          0                       # DTB write misses
system.cpu.dtb.inserts                              0                       # Number of times an entry is inserted into the TLB
system.cpu.dtb.flushTlb                             2                       # Number of times complete TLB was flushed
system.cpu.dtb.flushTlbMva                          0                       # Number of times TLB was flushed by MVA
system.cpu.dtb.flushTlbMvaAsid                      0                       # Number of times TLB was flushed by MVA & ASID
system.cpu.dtb.flushTlbAsid                         0                       # Number of times TLB was flushed by ASID
system.cpu.dtb.flushedEntries                       0                       # Number of entries that have been flushed from TLB
system.cpu.dtb.alignFaults                          0                       # Number of TLB faults due to alignment restrictions
system.cpu.dtb.prefetchFaults                       0                       # Number of TLB faults due to prefetch
system.cpu.dtb.domainFaults                         0                       # Number of TLB faults due to domain restrictions
system.cpu.dtb.permsFaults                          0                       # Number of TLB faults due to permissions restrictions
system.cpu.dtb.readAccesses                         0                       # DTB read accesses
system.cpu.dtb.writeAccesses                        0                       # DTB write accesses
system.cpu.dtb.instAccesses                         0                       # ITB inst accesses
system.cpu.dtb.hits                                 0                       # Total TLB (inst and data) hits
system.cpu.dtb.misses                               0                       # Total TLB (inst and data) misses
system.cpu.dtb.accesses                             0                       # Total TLB (inst and data) accesses
system.cpu.dtb.stage2_mmu.stage2_tlb.instHits            0                       # ITB inst hits
system.cpu.dtb.stage2_mmu.stage2_tlb.instMisses            0                       # ITB inst misses
system.cpu.dtb.stage2_mmu.stage2_tlb.readHits            0                       # DTB read hits
system.cpu.dtb.stage2_mmu.stage2_tlb.readMisses            0                       # DTB read misses
system.cpu.dtb.stage2_mmu.stage2_tlb.writeHits            0                       # DTB write hits
system.cpu.dtb.stage2_mmu.stage2_tlb.writeMisses            0                       # DTB write misses
system.cpu.dtb.stage2_mmu.stage2_tlb.inserts            0                       # Number of times an entry is inserted into the TLB
system.cpu.dtb.stage2_mmu.stage2_tlb.flushTlb            0                       # Number of times complete TLB was flushed
system.cpu.dtb.stage2_mmu.stage2_tlb.flushTlbMva            0                       # Number of times TLB was flushed by MVA
system.cpu.dtb.stage2_mmu.stage2_tlb.flushTlbMvaAsid            0                       # Number of times TLB was flushed by MVA & ASID
system.cpu.dtb.stage2_mmu.stage2_tlb.flushTlbAsid            0                       # Number of times TLB was flushed by ASID
system.cpu.dtb.stage2_mmu.stage2_tlb.flushedEntries            0                       # Number of entries that have been flushed from TLB
system.cpu.dtb.stage2_mmu.stage2_tlb.alignFaults            0                       # Number of TLB faults due to alignment restrictions
system.cpu.dtb.stage2_mmu.stage2_tlb.prefetchFaults            0                       # Number of TLB faults due to prefetch
system.cpu.dtb.stage2_mmu.stage2_tlb.domainFaults            0                       # Number of TLB faults due to domain restrictions
system.cpu.dtb.stage2_mmu.stage2_tlb.permsFaults            0                       # Number of TLB faults due to permissions restrictions
system.cpu.dtb.stage2_mmu.stage2_tlb.readAccesses            0                       # DTB read accesses
system.cpu.dtb.stage2_mmu.stage2_tlb.writeAccesses            0                       # DTB write accesses
system.cpu.dtb.stage2_mmu.stage2_tlb.instAccesses            0                       # ITB inst accesses
system.cpu.dtb.stage2_mmu.stage2_tlb.hits            0                       # Total TLB (inst and data) hits
system.cpu.dtb.stage2_mmu.stage2_tlb.misses            0                       # Total TLB (inst and data) misses
system.cpu.dtb.stage2_mmu.stage2_tlb.accesses            0                       # Total TLB (inst and data) accesses
system.cpu.dtb.stage2_mmu.stage2_tlb.walker.walks            0                       # Table walker walks requested
system.cpu.dtb.stage2_mmu.stage2_tlb.walker.requestOrigin_Requested::Data            0                       # Table walker requests started/completed, data/inst
system.cpu.dtb.stage2_mmu.stage2_tlb.walker.requestOrigin_Requested::Inst            0                       # Table walker requests started/completed, data/inst
system.cpu.dtb.stage2_mmu.stage2_tlb.walker.requestOrigin_Requested::total            0                       # Table walker requests started/completed, data/inst
system.cpu.dtb.stage2_mmu.stage2_tlb.walker.requestOrigin_Completed::Data            0                       # Table walker requests started/completed, data/inst
system.cpu.dtb.stage2_mmu.stage2_tlb.walker.requestOrigin_Completed::Inst            0                       # Table walker requests started/completed, data/inst
system.cpu.dtb.stage2_mmu.stage2_tlb.walker.requestOrigin_Completed::total            0                       # Table walker requests started/completed, data/inst
system.cpu.dtb.stage2_mmu.stage2_tlb.walker.requestOrigin::total            0                       # Table walker requests started/completed, data/inst
system.cpu.dtb.stage2_mmu.stage2_tlb.walker.power_state.pwrStateResidencyTicks::UNDEFINED 5749795421500                       # Cumulative time (in ticks) in various power states
system.cpu.dtb.walker.walks                         0                       # Table walker walks requested
system.cpu.dtb.walker.requestOrigin_Requested::Data            0                       # Table walker requests started/completed, data/inst
system.cpu.dtb.walker.requestOrigin_Requested::Inst            0                       # Table walker requests started/completed, data/inst
system.cpu.dtb.walker.requestOrigin_Requested::total            0                       # Table walker requests started/completed, data/inst
system.cpu.dtb.walker.requestOrigin_Completed::Data            0                       # Table walker requests started/completed, data/inst
system.cpu.dtb.walker.requestOrigin_Completed::Inst            0                       # Table walker requests started/completed, data/inst
system.cpu.dtb.walker.requestOrigin_Completed::total            0                       # Table walker requests started/completed, data/inst
system.cpu.dtb.walker.requestOrigin::total            0                       # Table walker requests started/completed, data/inst
system.cpu.dtb.walker.power_state.pwrStateResidencyTicks::UNDEFINED 5749795421500                       # Cumulative time (in ticks) in various power states
system.cpu.icache.demand_hits::.cpu.inst           17                       # number of demand (read+write) hits
system.cpu.icache.demand_hits::.switch_cpus.inst    260884677                       # number of demand (read+write) hits
system.cpu.icache.demand_hits::total        260884694                       # number of demand (read+write) hits
system.cpu.icache.overall_hits::.cpu.inst           17                       # number of overall hits
system.cpu.icache.overall_hits::.switch_cpus.inst    260884677                       # number of overall hits
system.cpu.icache.overall_hits::total       260884694                       # number of overall hits
system.cpu.icache.demand_misses::.cpu.inst            3                       # number of demand (read+write) misses
system.cpu.icache.demand_misses::.switch_cpus.inst          237                       # number of demand (read+write) misses
system.cpu.icache.demand_misses::total            240                       # number of demand (read+write) misses
system.cpu.icache.overall_misses::.cpu.inst            3                       # number of overall misses
system.cpu.icache.overall_misses::.switch_cpus.inst          237                       # number of overall misses
system.cpu.icache.overall_misses::total           240                       # number of overall misses
system.cpu.icache.demand_miss_latency::.switch_cpus.inst     21987500                       # number of demand (read+write) miss cycles
system.cpu.icache.demand_miss_latency::total     21987500                       # number of demand (read+write) miss cycles
system.cpu.icache.overall_miss_latency::.switch_cpus.inst     21987500                       # number of overall miss cycles
system.cpu.icache.overall_miss_latency::total     21987500                       # number of overall miss cycles
system.cpu.icache.demand_accesses::.cpu.inst           20                       # number of demand (read+write) accesses
system.cpu.icache.demand_accesses::.switch_cpus.inst    260884914                       # number of demand (read+write) accesses
system.cpu.icache.demand_accesses::total    260884934                       # number of demand (read+write) accesses
system.cpu.icache.overall_accesses::.cpu.inst           20                       # number of overall (read+write) accesses
system.cpu.icache.overall_accesses::.switch_cpus.inst    260884914                       # number of overall (read+write) accesses
system.cpu.icache.overall_accesses::total    260884934                       # number of overall (read+write) accesses
system.cpu.icache.demand_miss_rate::.cpu.inst     0.150000                       # miss rate for demand accesses
system.cpu.icache.demand_miss_rate::.switch_cpus.inst     0.000001                       # miss rate for demand accesses
system.cpu.icache.demand_miss_rate::total     0.000001                       # miss rate for demand accesses
system.cpu.icache.overall_miss_rate::.cpu.inst     0.150000                       # miss rate for overall accesses
system.cpu.icache.overall_miss_rate::.switch_cpus.inst     0.000001                       # miss rate for overall accesses
system.cpu.icache.overall_miss_rate::total     0.000001                       # miss rate for overall accesses
system.cpu.icache.demand_avg_miss_latency::.switch_cpus.inst 92774.261603                       # average overall miss latency
system.cpu.icache.demand_avg_miss_latency::total 91614.583333                       # average overall miss latency
system.cpu.icache.overall_avg_miss_latency::.switch_cpus.inst 92774.261603                       # average overall miss latency
system.cpu.icache.overall_avg_miss_latency::total 91614.583333                       # average overall miss latency
system.cpu.icache.blocked_cycles::no_mshrs            0                       # number of cycles access was blocked
system.cpu.icache.blocked_cycles::no_targets            0                       # number of cycles access was blocked
system.cpu.icache.blocked::no_mshrs                 0                       # number of cycles access was blocked
system.cpu.icache.blocked::no_targets               0                       # number of cycles access was blocked
system.cpu.icache.avg_blocked_cycles::no_mshrs          nan                       # average number of cycles each access was blocked
system.cpu.icache.avg_blocked_cycles::no_targets          nan                       # average number of cycles each access was blocked
system.cpu.icache.ghost_timestamp_misses            0                       # number of times timestamp policy causes a block to be inaccessible
system.cpu.icache.ghost_commits                    64                       # number of cache lines moved from ghost to main
system.cpu.icache.same_leapfrogs                    0                       # number of times leapfrogging occurs with a shared MSHR request
system.cpu.icache.writebacks::.writebacks           64                       # number of writebacks
system.cpu.icache.writebacks::total                64                       # number of writebacks
system.cpu.icache.demand_mshr_hits::.switch_cpus.inst           21                       # number of demand (read+write) MSHR hits
system.cpu.icache.demand_mshr_hits::total           21                       # number of demand (read+write) MSHR hits
system.cpu.icache.overall_mshr_hits::.switch_cpus.inst           21                       # number of overall MSHR hits
system.cpu.icache.overall_mshr_hits::total           21                       # number of overall MSHR hits
system.cpu.icache.demand_mshr_misses::.switch_cpus.inst          216                       # number of demand (read+write) MSHR misses
system.cpu.icache.demand_mshr_misses::total          216                       # number of demand (read+write) MSHR misses
system.cpu.icache.overall_mshr_misses::.switch_cpus.inst          216                       # number of overall MSHR misses
system.cpu.icache.overall_mshr_misses::total          216                       # number of overall MSHR misses
system.cpu.icache.demand_mshr_miss_latency::.switch_cpus.inst     20388000                       # number of demand (read+write) MSHR miss cycles
system.cpu.icache.demand_mshr_miss_latency::total     20388000                       # number of demand (read+write) MSHR miss cycles
system.cpu.icache.overall_mshr_miss_latency::.switch_cpus.inst     20388000                       # number of overall MSHR miss cycles
system.cpu.icache.overall_mshr_miss_latency::total     20388000                       # number of overall MSHR miss cycles
system.cpu.icache.demand_mshr_miss_rate::.switch_cpus.inst     0.000001                       # mshr miss rate for demand accesses
system.cpu.icache.demand_mshr_miss_rate::total     0.000001                       # mshr miss rate for demand accesses
system.cpu.icache.overall_mshr_miss_rate::.switch_cpus.inst     0.000001                       # mshr miss rate for overall accesses
system.cpu.icache.overall_mshr_miss_rate::total     0.000001                       # mshr miss rate for overall accesses
system.cpu.icache.demand_avg_mshr_miss_latency::.switch_cpus.inst 94388.888889                       # average overall mshr miss latency
system.cpu.icache.demand_avg_mshr_miss_latency::total 94388.888889                       # average overall mshr miss latency
system.cpu.icache.overall_avg_mshr_miss_latency::.switch_cpus.inst 94388.888889                       # average overall mshr miss latency
system.cpu.icache.overall_avg_mshr_miss_latency::total 94388.888889                       # average overall mshr miss latency
system.cpu.icache.replacements                      0                       # number of replacements
system.cpu.icache.ReadReq_hits::.cpu.inst           17                       # number of ReadReq hits
system.cpu.icache.ReadReq_hits::.switch_cpus.inst    260884677                       # number of ReadReq hits
system.cpu.icache.ReadReq_hits::total       260884694                       # number of ReadReq hits
system.cpu.icache.ReadReq_misses::.cpu.inst            3                       # number of ReadReq misses
system.cpu.icache.ReadReq_misses::.switch_cpus.inst          237                       # number of ReadReq misses
system.cpu.icache.ReadReq_misses::total           240                       # number of ReadReq misses
system.cpu.icache.ReadReq_miss_latency::.switch_cpus.inst     21987500                       # number of ReadReq miss cycles
system.cpu.icache.ReadReq_miss_latency::total     21987500                       # number of ReadReq miss cycles
system.cpu.icache.ReadReq_accesses::.cpu.inst           20                       # number of ReadReq accesses(hits+misses)
system.cpu.icache.ReadReq_accesses::.switch_cpus.inst    260884914                       # number of ReadReq accesses(hits+misses)
system.cpu.icache.ReadReq_accesses::total    260884934                       # number of ReadReq accesses(hits+misses)
system.cpu.icache.ReadReq_miss_rate::.cpu.inst     0.150000                       # miss rate for ReadReq accesses
system.cpu.icache.ReadReq_miss_rate::.switch_cpus.inst     0.000001                       # miss rate for ReadReq accesses
system.cpu.icache.ReadReq_miss_rate::total     0.000001                       # miss rate for ReadReq accesses
system.cpu.icache.ReadReq_avg_miss_latency::.switch_cpus.inst 92774.261603                       # average ReadReq miss latency
system.cpu.icache.ReadReq_avg_miss_latency::total 91614.583333                       # average ReadReq miss latency
system.cpu.icache.ReadReq_mshr_hits::.switch_cpus.inst           21                       # number of ReadReq MSHR hits
system.cpu.icache.ReadReq_mshr_hits::total           21                       # number of ReadReq MSHR hits
system.cpu.icache.ReadReq_mshr_misses::.switch_cpus.inst          216                       # number of ReadReq MSHR misses
system.cpu.icache.ReadReq_mshr_misses::total          216                       # number of ReadReq MSHR misses
system.cpu.icache.ReadReq_mshr_miss_latency::.switch_cpus.inst     20388000                       # number of ReadReq MSHR miss cycles
system.cpu.icache.ReadReq_mshr_miss_latency::total     20388000                       # number of ReadReq MSHR miss cycles
system.cpu.icache.ReadReq_mshr_miss_rate::.switch_cpus.inst     0.000001                       # mshr miss rate for ReadReq accesses
system.cpu.icache.ReadReq_mshr_miss_rate::total     0.000001                       # mshr miss rate for ReadReq accesses
system.cpu.icache.ReadReq_avg_mshr_miss_latency::.switch_cpus.inst 94388.888889                       # average ReadReq mshr miss latency
system.cpu.icache.ReadReq_avg_mshr_miss_latency::total 94388.888889                       # average ReadReq mshr miss latency
system.cpu.icache.ghosttags.tagsinuse        0.000061                       # Cycle average of tags in use
system.cpu.icache.ghosttags.total_refs              0                       # Total number of references to valid blocks.
system.cpu.icache.ghosttags.sampled_refs            0                       # Sample count of references to valid blocks.
system.cpu.icache.ghosttags.avg_refs              nan                       # Average number of references to valid blocks.
system.cpu.icache.ghosttags.warmup_cycle 5268958066500                       # Cycle when the warmup percentage was hit.
system.cpu.icache.ghosttags.occ_blocks::.switch_cpus.inst   194.286886                       # Average occupied blocks per requestor
system.cpu.icache.ghosttags.occ_percent::.switch_cpus.inst     6.071465                       # Average percentage of cache occupancy
system.cpu.icache.ghosttags.occ_percent::total     6.071465                       # Average percentage of cache occupancy
system.cpu.icache.ghosttags.tag_accesses          715                       # Number of tag accesses
system.cpu.icache.ghosttags.data_accesses          715                       # Number of data accesses
system.cpu.icache.ghosttags.repl_invalid            0                       # Number of initial replacements
system.cpu.icache.ghosttags.repl_valid_tag            0                       # Number of local replacements
system.cpu.icache.ghosttags.repl_valid_data            0                       # Number of global replacements
system.cpu.icache.ghosttags.power_state.pwrStateResidencyTicks::UNDEFINED 5749795421500                       # Cumulative time (in ticks) in various power states
system.cpu.icache.power_state.pwrStateResidencyTicks::UNDEFINED 5749795421500                       # Cumulative time (in ticks) in various power states
system.cpu.icache.tags.tagsinuse          -130.682046                       # Cycle average of tags in use
system.cpu.icache.tags.total_refs           260884977                       # Total number of references to valid blocks.
system.cpu.icache.tags.sampled_refs               283                       # Sample count of references to valid blocks.
system.cpu.icache.tags.avg_refs          921855.042403                       # Average number of references to valid blocks.
system.cpu.icache.tags.warmup_cycle      5268957840500                       # Cycle when the warmup percentage was hit.
system.cpu.icache.tags.occ_blocks::.cpu.inst     3.000000                       # Average occupied blocks per requestor
system.cpu.icache.tags.occ_blocks::.switch_cpus.inst  -133.682046                       # Average occupied blocks per requestor
system.cpu.icache.tags.occ_percent::.cpu.inst     0.005859                       # Average percentage of cache occupancy
system.cpu.icache.tags.occ_percent::.switch_cpus.inst    -0.261098                       # Average percentage of cache occupancy
system.cpu.icache.tags.occ_percent::total    -0.255238                       # Average percentage of cache occupancy
system.cpu.icache.tags.occ_task_id_blocks::1024           68                       # Occupied blocks per task id
system.cpu.icache.tags.age_task_id_blocks_1024::4           68                       # Occupied blocks per task id
system.cpu.icache.tags.occ_task_id_percent::1024     0.132812                       # Percentage of cache occupancy per task id
system.cpu.icache.tags.tag_accesses        2087079540                       # Number of tag accesses
system.cpu.icache.tags.data_accesses       2087079540                       # Number of data accesses
system.cpu.icache.tags.repl_invalid                 0                       # Number of initial replacements
system.cpu.icache.tags.repl_valid_tag               0                       # Number of local replacements
system.cpu.icache.tags.repl_valid_data              0                       # Number of global replacements
system.cpu.icache.tags.power_state.pwrStateResidencyTicks::UNDEFINED 5749795421500                       # Cumulative time (in ticks) in various power states
system.cpu.itb.instHits                             0                       # ITB inst hits
system.cpu.itb.instMisses                           0                       # ITB inst misses
system.cpu.itb.readHits                             0                       # DTB read hits
system.cpu.itb.readMisses                           0                       # DTB read misses
system.cpu.itb.writeHits                            0                       # DTB write hits
system.cpu.itb.writeMisses                          0                       # DTB write misses
system.cpu.itb.inserts                              0                       # Number of times an entry is inserted into the TLB
system.cpu.itb.flushTlb                             2                       # Number of times complete TLB was flushed
system.cpu.itb.flushTlbMva                          0                       # Number of times TLB was flushed by MVA
system.cpu.itb.flushTlbMvaAsid                      0                       # Number of times TLB was flushed by MVA & ASID
system.cpu.itb.flushTlbAsid                         0                       # Number of times TLB was flushed by ASID
system.cpu.itb.flushedEntries                       0                       # Number of entries that have been flushed from TLB
system.cpu.itb.alignFaults                          0                       # Number of TLB faults due to alignment restrictions
system.cpu.itb.prefetchFaults                       0                       # Number of TLB faults due to prefetch
system.cpu.itb.domainFaults                         0                       # Number of TLB faults due to domain restrictions
system.cpu.itb.permsFaults                          0                       # Number of TLB faults due to permissions restrictions
system.cpu.itb.readAccesses                         0                       # DTB read accesses
system.cpu.itb.writeAccesses                        0                       # DTB write accesses
[...]
system.switch_cpus.fetch.branches           277712361                       # Number of branches that fetch encountered
system.switch_cpus.fetch.predictedBranches    168235792                       # Number of branches that fetch has predicted taken
system.switch_cpus.fetch.cycles             700677607                       # Number of cycles fetch has run and was not squashing or blocked
system.switch_cpus.fetch.squashCycles          135592                       # Number of cycles fetch has spent squashing
system.switch_cpus.fetch.miscStallCycles           39                       # Number of cycles fetch has spent waiting on interrupts,or bad addresses, or out of MSHRs
system.switch_cpus.fetch.pendingTrapStallCycles          317                       # Number of stall cycles due to pending traps
system.switch_cpus.fetch.cacheLines         260884914                       # Number of cache lines fetched
system.switch_cpus.fetch.icacheSquashes          6500                       # Number of outstanding Icache misses that were squashed
system.switch_cpus.fetch.nisnDist::samples    961658970                       # Number of instructions fetched each cycle (Total)
system.switch_cpus.fetch.nisnDist::mean      2.265370                       # Number of instructions fetched each cycle (Total)
system.switch_cpus.fetch.nisnDist::stdev     3.097684                       # Number of instructions fetched each cycle (Total)
system.switch_cpus.fetch.nisnDist::underflows            0      0.00%      0.00% # Number of instructions fetched each cycle (Total)
system.switch_cpus.fetch.nisnDist::0        561803367     58.42%     58.42% # Number of instructions fetched each cycle (Total)
system.switch_cpus.fetch.nisnDist::1         23347900      2.43%     60.85% # Number of instructions fetched each cycle (Total)
system.switch_cpus.fetch.nisnDist::2         29352009      3.05%     63.90% # Number of instructions fetched each cycle (Total)
system.switch_cpus.fetch.nisnDist::3         49241276      5.12%     69.02% # Number of instructions fetched each cycle (Total)
system.switch_cpus.fetch.nisnDist::4         59753416      6.21%     75.23% # Number of instructions fetched each cycle (Total)
system.switch_cpus.fetch.nisnDist::5         46118017      4.80%     80.03% # Number of instructions fetched each cycle (Total)
system.switch_cpus.fetch.nisnDist::6         18669523      1.94%     81.97% # Number of instructions fetched each cycle (Total)
system.switch_cpus.fetch.nisnDist::7         19870594      2.07%     84.04% # Number of instructions fetched each cycle (Total)
system.switch_cpus.fetch.nisnDist::8        153502868     15.96%    100.00% # Number of instructions fetched each cycle (Total)
system.switch_cpus.fetch.nisnDist::overflows            0      0.00%    100.00% # Number of instructions fetched each cycle (Total)
system.switch_cpus.fetch.nisnDist::min_value            0                       # Number of instructions fetched each cycle (Total)
system.switch_cpus.fetch.nisnDist::max_value            8                       # Number of instructions fetched each cycle (Total)
system.switch_cpus.fetch.nisnDist::total    961658970                       # Number of instructions fetched each cycle (Total)
system.switch_cpus.fetch.branchRate          0.288780                       # Number of branch fetches per cycle
system.switch_cpus.fetch.rate                2.083020                       # Number of inst fetches per cycle
system.switch_cpus.itb.instHits                     0                       # ITB inst hits
system.switch_cpus.itb.instMisses                   0                       # ITB inst misses
system.switch_cpus.itb.readHits                     0                       # DTB read hits
system.switch_cpus.itb.readMisses                   0                       # DTB read misses
system.switch_cpus.itb.writeHits                    0                       # DTB write hits
system.switch_cpus.itb.writeMisses                  0                       # DTB write misses
system.switch_cpus.itb.inserts                      0                       # Number of times an entry is inserted into the TLB
system.switch_cpus.itb.flushTlb                     0                       # Number of times complete TLB was flushed
system.switch_cpus.itb.flushTlbMva                  0                       # Number of times TLB was flushed by MVA
system.switch_cpus.itb.flushTlbMvaAsid              0                       # Number of times TLB was flushed by MVA & ASID
system.switch_cpus.itb.flushTlbAsid                 0                       # Number of times TLB was flushed by ASID
system.switch_cpus.itb.flushedEntries               0                       # Number of entries that have been flushed from TLB
system.switch_cpus.itb.alignFaults                  0                       # Number of TLB faults due to alignment restrictions
system.switch_cpus.itb.prefetchFaults               0                       # Number of TLB faults due to prefetch
system.switch_cpus.itb.domainFaults                 0                       # Number of TLB faults due to domain restrictions
system.switch_cpus.itb.permsFaults                  0                       # Number of TLB faults due to permissions restrictions
system.switch_cpus.itb.readAccesses                 0                       # DTB read accesses
system.switch_cpus.itb.writeAccesses                0                       # DTB write accesses
system.switch_cpus.itb.instAccesses                 0                       # ITB inst accesses
system.switch_cpus.itb.hits                         0                       # Total TLB (inst and data) hits
system.switch_cpus.itb.misses                       0                       # Total TLB (inst and data) misses
system.switch_cpus.itb.accesses                     0                       # Total TLB (inst and data) accesses
system.switch_cpus.itb.stage2_mmu.stage2_tlb.instHits            0                       # ITB inst hits
system.switch_cpus.itb.stage2_mmu.stage2_tlb.instMisses            0                       # ITB inst misses
system.switch_cpus.itb.stage2_mmu.stage2_tlb.readHits            0                       # DTB read hits
system.switch_cpus.itb.stage2_mmu.stage2_tlb.readMisses            0                       # DTB read misses
system.switch_cpus.itb.stage2_mmu.stage2_tlb.writeHits            0                       # DTB write hits
system.switch_cpus.itb.stage2_mmu.stage2_tlb.writeMisses            0                       # DTB write misses
system.switch_cpus.itb.stage2_mmu.stage2_tlb.inserts            0                       # Number of times an entry is inserted into the TLB
system.switch_cpus.itb.stage2_mmu.stage2_tlb.flushTlb            0                       # Number of times complete TLB was flushed
system.switch_cpus.itb.stage2_mmu.stage2_tlb.flushTlbMva            0                       # Number of times TLB was flushed by MVA
system.switch_cpus.itb.stage2_mmu.stage2_tlb.flushTlbMvaAsid            0                       # Number of times TLB was flushed by MVA & ASID
system.switch_cpus.itb.stage2_mmu.stage2_tlb.flushTlbAsid            0                       # Number of times TLB was flushed by ASID
system.switch_cpus.itb.stage2_mmu.stage2_tlb.flushedEntries            0                       # Number of entries that have been flushed from TLB
system.switch_cpus.itb.stage2_mmu.stage2_tlb.alignFaults            0                       # Number of TLB faults due to alignment restrictions
system.switch_cpus.itb.stage2_mmu.stage2_tlb.prefetchFaults            0                       # Number of TLB faults due to prefetch
system.switch_cpus.itb.stage2_mmu.stage2_tlb.domainFaults            0                       # Number of TLB faults due to domain restrictions
system.switch_cpus.itb.stage2_mmu.stage2_tlb.permsFaults            0                       # Number of TLB faults due to permissions restrictions
system.switch_cpus.itb.stage2_mmu.stage2_tlb.readAccesses            0                       # DTB read accesses
system.switch_cpus.itb.stage2_mmu.stage2_tlb.writeAccesses            0                       # DTB write accesses
system.switch_cpus.itb.stage2_mmu.stage2_tlb.instAccesses            0                       # ITB inst accesses
system.switch_cpus.itb.stage2_mmu.stage2_tlb.hits            0                       # Total TLB (inst and data) hits
system.switch_cpus.itb.stage2_mmu.stage2_tlb.misses            0                       # Total TLB (inst and data) misses
system.switch_cpus.itb.stage2_mmu.stage2_tlb.accesses            0                       # Total TLB (inst and data) accesses
system.switch_cpus.itb.stage2_mmu.stage2_tlb.walker.walks            0                       # Table walker walks requested
system.switch_cpus.itb.stage2_mmu.stage2_tlb.walker.requestOrigin_Requested::Data            0                       # Table walker requests started/completed, data/inst
system.switch_cpus.itb.stage2_mmu.stage2_tlb.walker.requestOrigin_Requested::Inst            0                       # Table walker requests started/completed, data/inst
system.switch_cpus.itb.stage2_mmu.stage2_tlb.walker.requestOrigin_Requested::total            0                       # Table walker requests started/completed, data/inst
system.switch_cpus.itb.stage2_mmu.stage2_tlb.walker.requestOrigin_Completed::Data            0                       # Table walker requests started/completed, data/inst
system.switch_cpus.itb.stage2_mmu.stage2_tlb.walker.requestOrigin_Completed::Inst            0                       # Table walker requests started/completed, data/inst
system.switch_cpus.itb.stage2_mmu.stage2_tlb.walker.requestOrigin_Completed::total            0                       # Table walker requests started/completed, data/inst
system.switch_cpus.itb.stage2_mmu.stage2_tlb.walker.requestOrigin::total            0                       # Table walker requests started/completed, data/inst
system.switch_cpus.itb.stage2_mmu.stage2_tlb.walker.power_state.pwrStateResidencyTicks::UNDEFINED 5749795421500                       # Cumulative time (in ticks) in various power states
system.switch_cpus.itb.walker.walks                 0                       # Table walker walks requested
system.switch_cpus.itb.walker.requestOrigin_Requested::Data            0                       # Table walker requests started/completed, data/inst
system.switch_cpus.itb.walker.requestOrigin_Requested::Inst            0                       # Table walker requests started/completed, data/inst
system.switch_cpus.itb.walker.requestOrigin_Requested::total            0                       # Table walker requests started/completed, data/inst
system.switch_cpus.itb.walker.requestOrigin_Completed::Data            0                       # Table walker requests started/completed, data/inst
system.switch_cpus.itb.walker.requestOrigin_Completed::Inst            0                       # Table walker requests started/completed, data/inst
system.switch_cpus.itb.walker.requestOrigin_Completed::total            0                       # Table walker requests started/completed, data/inst
system.switch_cpus.itb.walker.requestOrigin::total            0                       # Table walker requests started/completed, data/inst
system.switch_cpus.itb.walker.power_state.pwrStateResidencyTicks::UNDEFINED 5749795421500                       # Cumulative time (in ticks) in various power states
system.switch_cpus.lsq0.forwLoads            11523079                       # Number of loads that had data forwarded from stores
system.switch_cpus.lsq0.squashedLoads           57307                       # Number of loads squashed
system.switch_cpus.lsq0.ignoredResponses            3                       # Number of memory responses ignored because the instruction is squashed
system.switch_cpus.lsq0.memOrderViolation         1193                       # Number of memory ordering violations
system.switch_cpus.lsq0.squashedStores          33343                       # Number of stores squashed
system.switch_cpus.lsq0.rescheduledLoads     59416431                       # Number of loads that were rescheduled
system.switch_cpus.lsq0.blockedByCache        2584895                       # Number of times an access to memory failed due to the cache being blocked
system.switch_cpus.power_state.pwrStateResidencyTicks::OFF 480837581500                       # Cumulative time (in ticks) in various power states
system.switch_cpus.rename.squashCycles          67777                       # Number of cycles rename is squashing
system.switch_cpus.rename.idleCycles        153089768                       # Number of cycles rename is idle
system.switch_cpus.rename.blockCycles       273302004                       # Number of cycles rename is blocking
system.switch_cpus.rename.serializeStallCycles         1527                       # count of cycles rename stalledfor serializing inst
system.switch_cpus.rename.runCycles         260947438                       # Number of cycles rename is running
system.switch_cpus.rename.unblockCycles     274250448                       # Number of cycles rename is unblocking
system.switch_cpus.rename.renamedInsts     2175932115                       # Number of instructions processed by rename
system.switch_cpus.rename.ROBFullEvents     126831033                       # Number of times rename has blocked due to ROB full
system.switch_cpus.rename.IQFullEvents       78234111                       # Number of times rename has blocked due to IQ full
system.switch_cpus.rename.LQFullEvents           4132                       # Number of times rename has blocked due to LQ full
system.switch_cpus.rename.SQFullEvents       38356871                       # Number of times rename has blocked due to SQ full
system.switch_cpus.rename.renamedOperands   2921340061                       # Number of destination operands rename has renamed
system.switch_cpus.rename.lookups          5620285345                       # Number of register rename lookups that rename has made
system.switch_cpus.rename.intLookups       1310724375                       # Number of integer rename lookups
system.switch_cpus.rename.vecLookups       1390292514                       # Number of vector rename lookups
system.switch_cpus.rename.committedMaps    2920635582                       # Number of HB maps that are committed
system.switch_cpus.rename.undoneMaps           704267                       # Number of HB maps that are undone due to squashing
system.switch_cpus.rename.serializing               7                       # count of serializing insts renamed
system.switch_cpus.rename.tempSerializing            0                       # count of temporary serializing insts renamed
system.switch_cpus.rename.skidInsts         598820052                       # count of insts added to the skid buffer
system.switch_cpus.rob.reads               2923872513                       # The number of ROB reads
system.switch_cpus.rob.writes              4351600627                       # The number of ROB writes
system.switch_cpus.thread0.numInsts        2000000001                       # Number of Instructions committed
system.switch_cpus.thread0.numOps          2175179188                       # Number of Ops committed
system.switch_cpus.thread0.numMemRefs               0                       # Number of Memory References
system.tol2bus.trans_dist::ReadResp           1476229                       # Transaction distribution
system.tol2bus.trans_dist::WritebackDirty     11331904                       # Transaction distribution
system.tol2bus.trans_dist::WritebackClean      1472871                       # Transaction distribution
system.tol2bus.trans_dist::CleanEvict         2031142                       # Transaction distribution
system.tol2bus.trans_dist::HardPFReq          6978792                       # Transaction distribution
system.tol2bus.trans_dist::UpgradeReq             127                       # Transaction distribution
system.tol2bus.trans_dist::UpgradeResp            127                       # Transaction distribution
system.tol2bus.trans_dist::ReadExReq          3106499                       # Transaction distribution
system.tol2bus.trans_dist::ReadExResp         3106499                       # Transaction distribution
system.tol2bus.trans_dist::ReadCleanReq       1476228                       # Transaction distribution
system.tol2bus.trans_dist::ReadSharedReq            1                       # Transaction distribution
system.tol2bus.trans_dist::InvalidateReq      2599488                       # Transaction distribution
system.tol2bus.trans_dist::InvalidateResp      2599488                       # Transaction distribution
system.tol2bus.pkt_count_system.cpu.icache.mem_side_port::system.l2.cpu_side_port          589                       # Packet count per connected requestor and responder (bytes)
system.tol2bus.pkt_count_system.cpu.dcache.mem_side_port::system.l2.cpu_side_port     21545715                       # Packet count per connected requestor and responder (bytes)
system.tol2bus.pkt_count::total              21546304                       # Packet count per connected requestor and responder (bytes)
system.tol2bus.pkt_size_system.cpu.icache.mem_side_port::system.l2.cpu_side_port        14016                       # Cumulative packet size per connected requestor and responder (bytes)
system.tol2bus.pkt_size_system.cpu.dcache.mem_side_port::system.l2.cpu_side_port    752714048                       # Cumulative packet size per connected requestor and responder (bytes)
system.tol2bus.pkt_size::total              752728064                       # Cumulative packet size per connected requestor and responder (bytes)
system.tol2bus.snoops                        14633091                       # Total snoops (count)
system.tol2bus.snoopTraffic                 360072128                       # Total snoop traffic (bytes)
system.tol2bus.snoop_fanout::samples         21815434                       # Request fanout histogram
system.tol2bus.snoop_fanout::mean            0.005049                       # Request fanout histogram
system.tol2bus.snoop_fanout::stdev           0.070877                       # Request fanout histogram
system.tol2bus.snoop_fanout::underflows             0      0.00%      0.00% # Request fanout histogram
system.tol2bus.snoop_fanout::0               21705287     99.50%     99.50% # Request fanout histogram
system.tol2bus.snoop_fanout::1                 110147      0.50%    100.00% # Request fanout histogram
system.tol2bus.snoop_fanout::2                      0      0.00%    100.00% # Request fanout histogram
system.tol2bus.snoop_fanout::overflows              0      0.00%    100.00% # Request fanout histogram
system.tol2bus.snoop_fanout::min_value              0                       # Request fanout histogram
system.tol2bus.snoop_fanout::max_value              1                       # Request fanout histogram
system.tol2bus.snoop_fanout::total           21815434                       # Request fanout histogram
system.tol2bus.power_state.pwrStateResidencyTicks::UNDEFINED 5749795421500                       # Cumulative time (in ticks) in various power states
system.tol2bus.reqLayer0.occupancy        15096285234                       # Layer occupancy (ticks)
system.tol2bus.reqLayer0.utilization              3.1                       # Layer utilization (%)
system.tol2bus.respLayer0.occupancy            324998                       # Layer occupancy (ticks)
system.tol2bus.respLayer0.utilization             0.0                       # Layer utilization (%)
system.tol2bus.respLayer1.occupancy        8173569500                       # Layer occupancy (ticks)
system.tol2bus.respLayer1.utilization             1.7                       # Layer utilization (%)
system.voltage_domain.voltage                       1                       # Voltage in Volts

---------- End Simulation Statistics   ----------
