
---------- Begin Simulation Statistics ----------
final_tick                               6683351231500                       # Number of ticks from beginning of simulation (restored from checkpoints and never reset)
host_inst_rate                                 847278                       # Simulator instruction rate (inst/s)
host_mem_usage                               51733480                       # Number of bytes of host memory used
host_op_rate                                   967758                       # Simulator op (including micro ops) rate (op/s)
host_seconds                                 14163.00                       # Real time elapsed on the host
host_tick_rate                               68086505                       # Simulator tick rate (ticks/s)
sim_freq                                 1000000000000                       # Frequency of simulated ticks
sim_insts                                 12000000007                       # Number of instructions simulated
sim_ops                                   13706363917                       # Number of ops (including micro ops) simulated
sim_seconds                                  0.964309                       # Number of seconds simulated
sim_ticks                                964309391000                       # Number of ticks simulated
system.cpu.committedInsts                           0                       # Number of instructions committed
system.cpu.committedOps                             0                       # Number of ops (including micro ops) committed
system.cpu.dcache.MSHRs.leapFrogMisses         205582                       # number of false blocks from MSHR
system.cpu.icache.MSHRs.leapFrogMisses              0                       # number of false blocks from MSHR
system.cpu.idle_fraction                            0                       # Percentage of idle cycles
system.cpu.not_idle_fraction                        1                       # Percentage of non-idle cycles
system.cpu.numCycles                                0                       # number of cpu cycles simulated
system.cpu.numWorkItemsCompleted                    0                       # number of work items this cpu completed
system.cpu.numWorkItemsStarted                      0                       # number of work items this cpu started
system.cpu.num_busy_cycles                          0                       # Number of busy cycles
system.cpu.num_conditional_control_insts            0                       # number of instructions that are conditional controls
system.cpu.num_fp_alu_accesses                      0                       # Number of float alu accesses
system.cpu.num_fp_insts                             0                       # number of float instructions
system.cpu.num_fp_register_reads                    0                       # number of times the floating registers were read
system.cpu.num_fp_register_writes                   0                       # number of times the floating registers were written
system.cpu.num_func_calls                           0                       # number of times a function call or return occured
system.cpu.num_idle_cycles                          0                       # Number of idle cycles
system.cpu.num_int_alu_accesses                     0                       # Number of integer alu accesses
system.cpu.num_int_insts                            0                       # number of integer instructions
system.cpu.num_int_register_reads                   0                       # number of times the integer registers were read
system.cpu.num_int_register_writes                  0                       # number of times the integer registers were written
system.cpu.num_load_insts                           0                       # Number of load instructions
system.cpu.num_mem_refs                             0                       # number of memory refs
system.cpu.num_store_insts                          0                       # Number of store instructions
system.cpu.num_vec_alu_accesses                     0                       # Number of vector alu accesses
system.cpu.num_vec_insts                            0                       # number of vector instructions
system.cpu.num_vec_register_reads                   0                       # number of times the vector registers were read
system.cpu.num_vec_register_writes                  0                       # number of times the vector registers were written
system.cpu.op_class::No_OpClass                     0                       # Class of executed instruction
system.cpu.op_class::IntAlu                         0                       # Class of executed instruction
system.cpu.op_class::IntMult                        0                       # Class of executed instruction
system.cpu.op_class::IntDiv                         0                       # Class of executed instruction
system.cpu.op_class::FloatAdd                       0                       # Class of executed instruction
system.cpu.op_class::FloatCmp                       0                       # Class of executed instruction
system.cpu.op_class::FloatCvt                       0                       # Class of executed instruction
system.cpu.op_class::FloatMult                      0                       # Class of executed instruction
system.cpu.op_class::FloatMultAcc                   0                       # Class of executed instruction
system.cpu.op_class::FloatDiv                       0                       # Class of executed instruction
system.cpu.op_class::FloatMisc                      0                       # Class of executed instruction
system.cpu.op_class::FloatSqrt                      0                       # Class of executed instruction
system.cpu.op_class::SimdAdd                        0                       # Class of executed instruction
system.cpu.op_class::SimdAddAcc                     0                       # Class of executed instruction
system.cpu.op_class::SimdAlu                        0                       # Class of executed instruction
system.cpu.op_class::SimdCmp                        0                       # Class of executed instruction
system.cpu.op_class::SimdCvt                        0                       # Class of executed instruction
system.cpu.op_class::SimdMisc                       0                       # Class of executed instruction
system.cpu.op_class::SimdMult                       0                       # Class of executed instruction
system.cpu.op_class::SimdMultAcc                    0                       # Class of executed instruction
system.cpu.op_class::SimdShift                      0                       # Class of executed instruction
system.cpu.op_class::SimdShiftAcc                   0                       # Class of executed instruction
system.cpu.op_class::SimdDiv                        0                       # Class of executed instruction
system.cpu.op_class::SimdSqrt                       0                       # Class of executed instruction
system.cpu.op_class::SimdFloatAdd                   0                       # Class of executed instruction
system.cpu.op_class::SimdFloatAlu                   0                       # Class of executed instruction
system.cpu.op_class::SimdFloatCmp                   0                       # Class of executed instruction
system.cpu.op_class::SimdFloatCvt                   0                       # Class of executed instruction
system.cpu.op_class::SimdFloatDiv                   0                       # Class of executed instruction
system.cpu.op_class::SimdFloatMisc                  0                       # Class of executed instruction
system.cpu.op_class::SimdFloatMult                  0                       # Class of executed instruction
system.cpu.op_class::SimdFloatMultAcc               0                       # Class of executed instruction
system.cpu.op_class::SimdFloatSqrt                  0                       # Class of executed instruction
system.cpu.op_class::SimdReduceAdd                  0                       # Class of executed instruction
system.cpu.op_class::SimdReduceAlu                  0                       # Class of executed instruction
system.cpu.op_class::SimdReduceCmp                  0                       # Class of executed instruction
system.cpu.op_class::SimdFloatReduceAdd             0                       # Class of executed instruction
system.cpu.op_class::SimdFloatReduceCmp             0                       # Class of executed instruction
system.cpu.op_class::SimdAes                        0                       # Class of executed instruction
system.cpu.op_class::SimdAesMix                     0                       # Class of executed instruction
system.cpu.op_class::SimdSha1Hash                   0                       # Class of executed instruction
system.cpu.op_class::SimdSha1Hash2                  0                       # Class of executed instruction
system.cpu.op_class::SimdSha256Hash                 0                       # Class of executed instruction
system.cpu.op_class::SimdSha256Hash2                0                       # Class of executed instruction
system.cpu.op_class::SimdShaSigma2                  0                       # Class of executed instruction
system.cpu.op_class::SimdShaSigma3                  0                       # Class of executed instruction
system.cpu.op_class::SimdPredAlu                    0                       # Class of executed instruction
system.cpu.op_class::MemRead                        0                       # Class of executed instruction
system.cpu.op_class::MemWrite                       0                       # Class of executed instruction
system.cpu.op_class::FloatMemRead                   0                       # Class of executed instruction
system.cpu.op_class::FloatMemWrite                  0                       # Class of executed instruction
system.cpu.op_class::IprAccess                      0                       # Class of executed instruction
system.cpu.op_class::InstPrefetch                   0                       # Class of executed instruction
system.cpu.op_class::total                          0                       # Class of executed instruction
system.cpu.workload.numSyscalls                   191                       # Number of system calls
system.l2.MSHRs.leapFrogMisses                      0                       # number of false blocks from MSHR
system.membus.snoop_filter.hit_multi_requests            0                       # Number of requests hitting in the snoop filter with multiple (>1) holders of the requested data.
system.membus.snoop_filter.hit_multi_snoops            0                       # Number of snoops hitting in the snoop filter with multiple (>1) holders of the requested data.
system.membus.snoop_filter.hit_single_requests      1082143                       # Number of requests hitting in the snoop filter with a single holder of the requested data.
system.membus.snoop_filter.hit_single_snoops            0                       # Number of snoops hitting in the snoop filter with a single holder of the requested data.
system.membus.snoop_filter.tot_requests       2162100                       # Total number of requests made to the snoop filter.
system.membus.snoop_filter.tot_snoops               0                       # Total number of snoops made to the snoop filter.
system.switch_cpus.cc_regfile_reads         738259203                       # number of cc regfile reads
system.switch_cpus.cc_regfile_writes        741657933                       # number of cc regfile writes
system.switch_cpus.committedInsts          2000000006                       # Number of Instructions Simulated
system.switch_cpus.committedOps            2268303567                       # Number of Ops (including micro ops) Simulated
system.switch_cpus.cpi                       0.964311                       # CPI: Cycles Per Instruction
system.switch_cpus.cpi_total                 0.964311                       # CPI: Total CPI of All Threads
system.switch_cpus.idleCycles                57019533                       # Total number of cycles that the CPU has spent unscheduled due to idling
system.switch_cpus.iew.branchMispredicts      7137019                       # Number of branch mispredicts detected at execute
system.switch_cpus.iew.exec_branches        633769885                       # Number of branches executed
system.switch_cpus.iew.exec_nop              29497203                       # number of nop insts executed
system.switch_cpus.iew.exec_rate             1.241433                       # Inst execution rate
system.switch_cpus.iew.exec_refs            791857673                       # number of memory reference insts executed
system.switch_cpus.iew.exec_stores           98411625                       # Number of stores executed
system.switch_cpus.iew.exec_swp                     0                       # number of swp insts executed
system.switch_cpus.iew.iewBlockCycles        73401404                       # Number of cycles IEW is blocking
system.switch_cpus.iew.iewDispLoadInsts     676817416                       # Number of dispatched load instructions
system.switch_cpus.iew.iewDispNonSpecInsts         3782                       # Number of dispatched non-speculative instructions
system.switch_cpus.iew.iewDispSquashedInsts      1359498                       # Number of squashed instructions skipped by dispatch
system.switch_cpus.iew.iewDispStoreInsts    100474953                       # Number of dispatched store instructions
system.switch_cpus.iew.iewDispatchedInsts   2435347673                       # Number of instructions dispatched to IQ
system.switch_cpus.iew.iewExecLoadInsts     693446048                       # Number of load instructions executed
system.switch_cpus.iew.iewExecSquashedInsts      6933808                       # Number of squashed instructions skipped in execute
system.switch_cpus.iew.iewExecutedInsts    2394256021                       # Number of executed instructions
system.switch_cpus.iew.iewIQFullEvents        7213119                       # Number of times the IQ has become full, causing a stall
system.switch_cpus.iew.iewIdleCycles                0                       # Number of cycles IEW is idle
system.switch_cpus.iew.iewLSQFullEvents     241164364                       # Number of times the LSQ has become full, causing a stall
system.switch_cpus.iew.iewSquashCycles        5888165                       # Number of cycles IEW is squashing
system.switch_cpus.iew.iewUnblockCycles     249663264                       # Number of cycles IEW is unblocking
system.switch_cpus.iew.memOrderViolationEvents        51080                       # Number of memory order violations
system.switch_cpus.iew.predictedNotTakenIncorrect      2603712                       # Number of branches that were predicted not taken incorrectly
system.switch_cpus.iew.predictedTakenIncorrect      4533307                       # Number of branches that were predicted taken incorrectly
system.switch_cpus.iew.wb_consumers        2439331012                       # num instructions consuming a value
system.switch_cpus.iew.wb_count            2360835721                       # cumulative count of insts written-back
system.switch_cpus.iew.wb_fanout             0.566025                       # average fanout of values written-back
system.switch_cpus.iew.wb_producers        1380721811                       # num instructions producing a value
system.switch_cpus.iew.wb_rate               1.224105                       # insts written-back per cycle
system.switch_cpus.iew.wb_sent             2362462713                       # cumulative count of insts sent to commit
system.switch_cpus.int_regfile_reads       2746298810                       # number of integer regfile reads
system.switch_cpus.int_regfile_writes      1669484105                       # number of integer regfile writes
system.switch_cpus.ipc                       1.037009                       # IPC: Instructions Per Cycle
system.switch_cpus.ipc_total                 1.037009                       # IPC: Total IPC of All Threads
system.switch_cpus.iq.FU_type_0::No_OpClass         2206      0.00%      0.00% # Type of FU issued
system.switch_cpus.iq.FU_type_0::IntAlu    1601862792     66.71%     66.71% # Type of FU issued
system.switch_cpus.iq.FU_type_0::IntMult      3185468      0.13%     66.84% # Type of FU issued
system.switch_cpus.iq.FU_type_0::IntDiv        298450      0.01%     66.86% # Type of FU issued
system.switch_cpus.iq.FU_type_0::FloatAdd            0      0.00%     66.86% # Type of FU issued
system.switch_cpus.iq.FU_type_0::FloatCmp            0      0.00%     66.86% # Type of FU issued
system.switch_cpus.iq.FU_type_0::FloatCvt          889      0.00%     66.86% # Type of FU issued
system.switch_cpus.iq.FU_type_0::FloatMult          536      0.00%     66.86% # Type of FU issued
system.switch_cpus.iq.FU_type_0::FloatMultAcc            0      0.00%     66.86% # Type of FU issued
system.switch_cpus.iq.FU_type_0::FloatDiv            0      0.00%     66.86% # Type of FU issued
system.switch_cpus.iq.FU_type_0::FloatMisc       473963      0.02%     66.88% # Type of FU issued
system.switch_cpus.iq.FU_type_0::FloatSqrt            0      0.00%     66.88% # Type of FU issued
system.switch_cpus.iq.FU_type_0::SimdAdd            0      0.00%     66.88% # Type of FU issued
system.switch_cpus.iq.FU_type_0::SimdAddAcc            0      0.00%     66.88% # Type of FU issued
system.switch_cpus.iq.FU_type_0::SimdAlu       185037      0.01%     66.88% # Type of FU issued
system.switch_cpus.iq.FU_type_0::SimdCmp       308394      0.01%     66.90% # Type of FU issued
system.switch_cpus.iq.FU_type_0::SimdCvt            0      0.00%     66.90% # Type of FU issued
system.switch_cpus.iq.FU_type_0::SimdMisc        94037      0.00%     66.90% # Type of FU issued
system.switch_cpus.iq.FU_type_0::SimdMult            0      0.00%     66.90% # Type of FU issued
system.switch_cpus.iq.FU_type_0::SimdMultAcc            0      0.00%     66.90% # Type of FU issued
system.switch_cpus.iq.FU_type_0::SimdShift            0      0.00%     66.90% # Type of FU issued
system.switch_cpus.iq.FU_type_0::SimdShiftAcc            0      0.00%     66.90% # Type of FU issued
system.switch_cpus.iq.FU_type_0::SimdDiv            0      0.00%     66.90% # Type of FU issued
system.switch_cpus.iq.FU_type_0::SimdSqrt            0      0.00%     66.90% # Type of FU issued
system.switch_cpus.iq.FU_type_0::SimdFloatAdd            0      0.00%     66.90% # Type of FU issued
system.switch_cpus.iq.FU_type_0::SimdFloatAlu            0      0.00%     66.90% # Type of FU issued
system.switch_cpus.iq.FU_type_0::SimdFloatCmp            0      0.00%     66.90% # Type of FU issued
system.switch_cpus.iq.FU_type_0::SimdFloatCvt            0      0.00%     66.90% # Type of FU issued
system.switch_cpus.iq.FU_type_0::SimdFloatDiv            0      0.00%     66.90% # Type of FU issued
system.switch_cpus.iq.FU_type_0::SimdFloatMisc            0      0.00%     66.90% # Type of FU issued
system.switch_cpus.iq.FU_type_0::SimdFloatMult            0      0.00%     66.90% # Type of FU issued
system.switch_cpus.iq.FU_type_0::SimdFloatMultAcc            0      0.00%     66.90% # Type of FU issued
system.switch_cpus.iq.FU_type_0::SimdFloatSqrt            0      0.00%     66.90% # Type of FU issued
system.switch_cpus.iq.FU_type_0::SimdReduceAdd            0      0.00%     66.90% # Type of FU issued
system.switch_cpus.iq.FU_type_0::SimdReduceAlu            0      0.00%     66.90% # Type of FU issued
system.switch_cpus.iq.FU_type_0::SimdReduceCmp            0      0.00%     66.90% # Type of FU issued
system.switch_cpus.iq.FU_type_0::SimdFloatReduceAdd            0      0.00%     66.90% # Type of FU issued
system.switch_cpus.iq.FU_type_0::SimdFloatReduceCmp            0      0.00%     66.90% # Type of FU issued
system.switch_cpus.iq.FU_type_0::SimdAes            0      0.00%     66.90% # Type of FU issued
system.switch_cpus.iq.FU_type_0::SimdAesMix            0      0.00%     66.90% # Type of FU issued
system.switch_cpus.iq.FU_type_0::SimdSha1Hash            0      0.00%     66.90% # Type of FU issued
system.switch_cpus.iq.FU_type_0::SimdSha1Hash2            0      0.00%     66.90% # Type of FU issued
system.switch_cpus.iq.FU_type_0::SimdSha256Hash            0      0.00%     66.90% # Type of FU issued
system.switch_cpus.iq.FU_type_0::SimdSha256Hash2            0      0.00%     66.90% # Type of FU issued
system.switch_cpus.iq.FU_type_0::SimdShaSigma2            0      0.00%     66.90% # Type of FU issued
system.switch_cpus.iq.FU_type_0::SimdShaSigma3            0      0.00%     66.90% # Type of FU issued
system.switch_cpus.iq.FU_type_0::SimdPredAlu            0      0.00%     66.90% # Type of FU issued
system.switch_cpus.iq.FU_type_0::MemRead    695950487     28.98%     95.88% # Type of FU issued
system.switch_cpus.iq.FU_type_0::MemWrite     98827571      4.12%    100.00% # Type of FU issued
system.switch_cpus.iq.FU_type_0::FloatMemRead            0      0.00%    100.00% # Type of FU issued
system.switch_cpus.iq.FU_type_0::FloatMemWrite            0      0.00%    100.00% # Type of FU issued
system.switch_cpus.iq.FU_type_0::IprAccess            0      0.00%    100.00% # Type of FU issued
system.switch_cpus.iq.FU_type_0::InstPrefetch            0      0.00%    100.00% # Type of FU issued
system.switch_cpus.iq.FU_type_0::total     2401189830                       # Type of FU issued
system.switch_cpus.iq.fp_alu_accesses               0                       # Number of floating point alu accesses
system.switch_cpus.iq.fp_inst_queue_reads            0                       # Number of floating instruction queue reads
system.switch_cpus.iq.fp_inst_queue_wakeup_accesses            0                       # Number of floating instruction queue wakeup accesses
system.switch_cpus.iq.fp_inst_queue_writes            0                       # Number of floating instruction queue writes
system.switch_cpus.iq.fu_busy_cnt            29616216                       # FU busy when requested
system.switch_cpus.iq.fu_busy_rate           0.012334                       # FU busy rate (busy events/executed inst)
system.switch_cpus.iq.fu_full::No_OpClass            0      0.00%      0.00% # attempts to use FU when none available
system.switch_cpus.iq.fu_full::IntAlu        19659003     66.38%     66.38% # attempts to use FU when none available
system.switch_cpus.iq.fu_full::IntMult              0      0.00%     66.38% # attempts to use FU when none available
system.switch_cpus.iq.fu_full::IntDiv               0      0.00%     66.38% # attempts to use FU when none available
system.switch_cpus.iq.fu_full::FloatAdd             0      0.00%     66.38% # attempts to use FU when none available
system.switch_cpus.iq.fu_full::FloatCmp             0      0.00%     66.38% # attempts to use FU when none available
system.switch_cpus.iq.fu_full::FloatCvt             0      0.00%     66.38% # attempts to use FU when none available
system.switch_cpus.iq.fu_full::FloatMult            0      0.00%     66.38% # attempts to use FU when none available
system.switch_cpus.iq.fu_full::FloatMultAcc            0      0.00%     66.38% # attempts to use FU when none available
system.switch_cpus.iq.fu_full::FloatDiv             0      0.00%     66.38% # attempts to use FU when none available
system.switch_cpus.iq.fu_full::FloatMisc            0      0.00%     66.38% # attempts to use FU when none available
system.switch_cpus.iq.fu_full::FloatSqrt            0      0.00%     66.38% # attempts to use FU when none available
system.switch_cpus.iq.fu_full::SimdAdd              0      0.00%     66.38% # attempts to use FU when none available
system.switch_cpus.iq.fu_full::SimdAddAcc            0      0.00%     66.38% # attempts to use FU when none available
system.switch_cpus.iq.fu_full::SimdAlu              0      0.00%     66.38% # attempts to use FU when none available
system.switch_cpus.iq.fu_full::SimdCmp              0      0.00%     66.38% # attempts to use FU when none available
system.switch_cpus.iq.fu_full::SimdCvt              0      0.00%     66.38% # attempts to use FU when none available
system.switch_cpus.iq.fu_full::SimdMisc             0      0.00%     66.38% # attempts to use FU when none available
system.switch_cpus.iq.fu_full::SimdMult             0      0.00%     66.38% # attempts to use FU when none available
system.switch_cpus.iq.fu_full::SimdMultAcc            0      0.00%     66.38% # attempts to use FU when none available
system.switch_cpus.iq.fu_full::SimdShift            0      0.00%     66.38% # attempts to use FU when none available
system.switch_cpus.iq.fu_full::SimdShiftAcc            0      0.00%     66.38% # attempts to use FU when none available
system.switch_cpus.iq.fu_full::SimdDiv              0      0.00%     66.38% # attempts to use FU when none available
system.switch_cpus.iq.fu_full::SimdSqrt             0      0.00%     66.38% # attempts to use FU when none available
system.switch_cpus.iq.fu_full::SimdFloatAdd            0      0.00%     66.38% # attempts to use FU when none available
system.switch_cpus.iq.fu_full::SimdFloatAlu            0      0.00%     66.38% # attempts to use FU when none available
system.switch_cpus.iq.fu_full::SimdFloatCmp            0      0.00%     66.38% # attempts to use FU when none available
system.switch_cpus.iq.fu_full::SimdFloatCvt            0      0.00%     66.38% # attempts to use FU when none available
system.switch_cpus.iq.fu_full::SimdFloatDiv            0      0.00%     66.38% # attempts to use FU when none available
system.switch_cpus.iq.fu_full::SimdFloatMisc            0      0.00%     66.38% # attempts to use FU when none available
system.switch_cpus.iq.fu_full::SimdFloatMult            0      0.00%     66.38% # attempts to use FU when none available
system.switch_cpus.iq.fu_full::SimdFloatMultAcc            0      0.00%     66.38% # attempts to use FU when none available
system.switch_cpus.iq.fu_full::SimdFloatSqrt            0      0.00%     66.38% # attempts to use FU when none available
system.switch_cpus.iq.fu_full::SimdReduceAdd            0      0.00%     66.38% # attempts to use FU when none available
system.switch_cpus.iq.fu_full::SimdReduceAlu            0      0.00%     66.38% # attempts to use FU when none available
system.switch_cpus.iq.fu_full::SimdReduceCmp            0      0.00%     66.38% # attempts to use FU when none available
system.switch_cpus.iq.fu_full::SimdFloatReduceAdd            0      0.00%     66.38% # attempts to use FU when none available
system.switch_cpus.iq.fu_full::SimdFloatReduceCmp            0      0.00%     66.38% # attempts to use FU when none available
system.switch_cpus.iq.fu_full::SimdAes              0      0.00%     66.38% # attempts to use FU when none available
system.switch_cpus.iq.fu_full::SimdAesMix            0      0.00%     66.38% # attempts to use FU when none available
system.switch_cpus.iq.fu_full::SimdSha1Hash            0      0.00%     66.38% # attempts to use FU when none available
system.switch_cpus.iq.fu_full::SimdSha1Hash2            0      0.00%     66.38% # attempts to use FU when none available
system.switch_cpus.iq.fu_full::SimdSha256Hash            0      0.00%     66.38% # attempts to use FU when none available
system.switch_cpus.iq.fu_full::SimdSha256Hash2            0      0.00%     66.38% # attempts to use FU when none available
system.switch_cpus.iq.fu_full::SimdShaSigma2            0      0.00%     66.38% # attempts to use FU when none available
system.switch_cpus.iq.fu_full::SimdShaSigma3            0      0.00%     66.38% # attempts to use FU when none available
system.switch_cpus.iq.fu_full::SimdPredAlu            0      0.00%     66.38% # attempts to use FU when none available
system.switch_cpus.iq.fu_full::MemRead        6060262     20.46%     86.84% # attempts to use FU when none available
system.switch_cpus.iq.fu_full::MemWrite       3896951     13.16%    100.00% # attempts to use FU when none available
system.switch_cpus.iq.fu_full::FloatMemRead            0      0.00%    100.00% # attempts to use FU when none available
system.switch_cpus.iq.fu_full::FloatMemWrite            0      0.00%    100.00% # attempts to use FU when none available
system.switch_cpus.iq.fu_full::IprAccess            0      0.00%    100.00% # attempts to use FU when none available
system.switch_cpus.iq.fu_full::InstPrefetch            0      0.00%    100.00% # attempts to use FU when none available
system.switch_cpus.iq.int_alu_accesses     2422714521                       # Number of integer alu accesses
system.switch_cpus.iq.int_inst_queue_reads   6688409956                       # Number of integer instruction queue reads
system.switch_cpus.iq.int_inst_queue_wakeup_accesses   2353672589                       # Number of integer instruction queue wakeup accesses
system.switch_cpus.iq.int_inst_queue_writes   2534656867                       # Number of integer instruction queue writes
system.switch_cpus.iq.iqInstsAdded         2405846688                       # Number of instructions added to the IQ (excludes non-spec)
system.switch_cpus.iq.iqInstsIssued        2401189830                       # Number of instructions issued
system.switch_cpus.iq.iqNonSpecInstsAdded         3782                       # Number of non-speculative instructions added to the IQ
system.switch_cpus.iq.iqSquashedInstsExamined    137546843                       # Number of squashed instructions iterated over during squash; mainly for profiling
system.switch_cpus.iq.iqSquashedInstsIssued       404363                       # Number of squashed instructions issued
system.switch_cpus.iq.iqSquashedNonSpecRemoved         1439                       # Number of squashed non-spec instructions that were removed
system.switch_cpus.iq.iqSquashedOperandsExamined     70156612                       # Number of squashed operands that are examined and possibly removed from graph
system.switch_cpus.iq.issued_per_cycle::samples   1871603159                       # Number of insts issued each cycle
system.switch_cpus.iq.issued_per_cycle::mean     1.282959                       # Number of insts issued each cycle
system.switch_cpus.iq.issued_per_cycle::stdev     1.859822                       # Number of insts issued each cycle
system.switch_cpus.iq.issued_per_cycle::underflows            0      0.00%      0.00% # Number of insts issued each cycle
system.switch_cpus.iq.issued_per_cycle::0   1014729535     54.22%     54.22% # Number of insts issued each cycle
system.switch_cpus.iq.issued_per_cycle::1    254285101     13.59%     67.80% # Number of insts issued each cycle
system.switch_cpus.iq.issued_per_cycle::2    207534153     11.09%     78.89% # Number of insts issued each cycle
system.switch_cpus.iq.issued_per_cycle::3    157188289      8.40%     87.29% # Number of insts issued each cycle
system.switch_cpus.iq.issued_per_cycle::4     86518828      4.62%     91.91% # Number of insts issued each cycle
system.switch_cpus.iq.issued_per_cycle::5     54187010      2.90%     94.81% # Number of insts issued each cycle
system.switch_cpus.iq.issued_per_cycle::6     54175189      2.89%     97.70% # Number of insts issued each cycle
system.switch_cpus.iq.issued_per_cycle::7     25670372      1.37%     99.07% # Number of insts issued each cycle
system.switch_cpus.iq.issued_per_cycle::8     17314682      0.93%    100.00% # Number of insts issued each cycle
system.switch_cpus.iq.issued_per_cycle::overflows            0      0.00%    100.00% # Number of insts issued each cycle
system.switch_cpus.iq.issued_per_cycle::min_value            0                       # Number of insts issued each cycle
system.switch_cpus.iq.issued_per_cycle::max_value            8                       # Number of insts issued each cycle
system.switch_cpus.iq.issued_per_cycle::total   1871603159                       # Number of insts issued each cycle
system.switch_cpus.iq.rate                   1.245028                       # Inst issue rate
system.switch_cpus.iq.vec_alu_accesses        8089319                       # Number of vector alu accesses
system.switch_cpus.iq.vec_inst_queue_reads     15593441                       # Number of vector instruction queue reads
system.switch_cpus.iq.vec_inst_queue_wakeup_accesses      7163132                       # Number of vector instruction queue wakeup accesses
system.switch_cpus.iq.vec_inst_queue_writes      8790609                       # Number of vector instruction queue writes
system.switch_cpus.memDep0.conflictingLoads      2441301                       # Number of conflicting loads.
system.switch_cpus.memDep0.conflictingStores      6423932                       # Number of conflicting stores.
system.switch_cpus.memDep0.insertedLoads    676817416                       # Number of loads inserted to the mem dependence unit.
system.switch_cpus.memDep0.insertedStores    100474953                       # Number of stores inserted to the mem dependence unit.
system.switch_cpus.misc_regfile_reads      6144651281                       # number of misc regfile reads
system.switch_cpus.misc_regfile_writes           2329                       # number of misc regfile writes
system.switch_cpus.numCycles               1928622692                       # number of cpu cycles simulated
system.switch_cpus.numWorkItemsCompleted            0                       # number of work items this cpu completed
system.switch_cpus.numWorkItemsStarted              0                       # number of work items this cpu started
system.switch_cpus.pred_regfile_reads          821177                       # number of predicate regfile reads
system.switch_cpus.pred_regfile_writes         307020                       # number of predicate regfile writes
system.switch_cpus.timesIdled                 7847612                       # Number of times that the entire CPU went into an idle state and unscheduled itself
system.switch_cpus.vec_regfile_reads          4480376                       # number of vector regfile reads
system.switch_cpus.vec_regfile_writes         2707007                       # number of vector regfile writes
system.tol2bus.snoop_filter.hit_multi_requests        17191                       # Number of requests hitting in the snoop filter with multiple (>1) holders of the requested data.
system.tol2bus.snoop_filter.hit_multi_snoops            3                       # Number of snoops hitting in the snoop filter with multiple (>1) holders of the requested data.
system.tol2bus.snoop_filter.hit_single_requests     78756178                       # Number of requests hitting in the snoop filter with a single holder of the requested data.
system.tol2bus.snoop_filter.hit_single_snoops       850334                       # Number of snoops hitting in the snoop filter with a single holder of the requested data.
system.tol2bus.snoop_filter.tot_requests    156280446                       # Total number of requests made to the snoop filter.
system.tol2bus.snoop_filter.tot_snoops         850337                       # Total number of snoops made to the snoop filter.
system.clk_domain.clock                          1000                       # Clock period in ticks
system.cpu.dcache.demand_hits::.switch_cpus.data    553139840                       # number of demand (read+write) hits
system.cpu.dcache.demand_hits::total        553139840                       # number of demand (read+write) hits
system.cpu.dcache.overall_hits::.switch_cpus.data    553139840                       # number of overall hits
system.cpu.dcache.overall_hits::total       553139840                       # number of overall hits
system.cpu.dcache.demand_misses::.switch_cpus.data    203702530                       # number of demand (read+write) misses
system.cpu.dcache.demand_misses::total      203702530                       # number of demand (read+write) misses
system.cpu.dcache.overall_misses::.switch_cpus.data    203702530                       # number of overall misses
system.cpu.dcache.overall_misses::total     203702530                       # number of overall misses
system.cpu.dcache.demand_miss_latency::.switch_cpus.data 3204658888390                       # number of demand (read+write) miss cycles
system.cpu.dcache.demand_miss_latency::total 3204658888390                       # number of demand (read+write) miss cycles
system.cpu.dcache.overall_miss_latency::.switch_cpus.data 3204658888390                       # number of overall miss cycles
system.cpu.dcache.overall_miss_latency::total 3204658888390                       # number of overall miss cycles
system.cpu.dcache.demand_accesses::.switch_cpus.data    756842370                       # number of demand (read+write) accesses
system.cpu.dcache.demand_accesses::total    756842370                       # number of demand (read+write) accesses
system.cpu.dcache.overall_accesses::.switch_cpus.data    756842370                       # number of overall (read+write) accesses
system.cpu.dcache.overall_accesses::total    756842370                       # number of overall (read+write) accesses
system.cpu.dcache.demand_miss_rate::.switch_cpus.data     0.269148                       # miss rate for demand accesses
system.cpu.dcache.demand_miss_rate::total     0.269148                       # miss rate for demand accesses
system.cpu.dcache.overall_miss_rate::.switch_cpus.data     0.269148                       # miss rate for overall accesses
system.cpu.dcache.overall_miss_rate::total     0.269148                       # miss rate for overall accesses
system.cpu.dcache.demand_avg_miss_latency::.switch_cpus.data 15732.052461                       # average overall miss latency
system.cpu.dcache.demand_avg_miss_latency::total 15732.052461                       # average overall miss latency
system.cpu.dcache.overall_avg_miss_latency::.switch_cpus.data 15732.052461                       # average overall miss latency
system.cpu.dcache.overall_avg_miss_latency::total 15732.052461                       # average overall miss latency
system.cpu.dcache.blocked_cycles::no_mshrs    109464448                       # number of cycles access was blocked
system.cpu.dcache.blocked_cycles::no_targets       678685                       # number of cycles access was blocked
system.cpu.dcache.blocked::no_mshrs           5006611                       # number of cycles access was blocked
system.cpu.dcache.blocked::no_targets           88734                       # number of cycles access was blocked
system.cpu.dcache.avg_blocked_cycles::no_mshrs    21.863981                       # average number of cycles each access was blocked
system.cpu.dcache.avg_blocked_cycles::no_targets     7.648534                       # average number of cycles each access was blocked
system.cpu.dcache.ghost_timestamp_misses       103924                       # number of times timestamp policy causes a block to be inaccessible
system.cpu.dcache.ghost_commits              64982441                       # number of cache lines moved from ghost to main
system.cpu.dcache.same_leapfrogs               214096                       # number of times leapfrogging occurs with a shared MSHR request
system.cpu.dcache.writebacks::.writebacks    131330227                       # number of writebacks
system.cpu.dcache.writebacks::total         131330227                       # number of writebacks
system.cpu.dcache.demand_mshr_hits::.switch_cpus.data    135129995                       # number of demand (read+write) MSHR hits
system.cpu.dcache.demand_mshr_hits::total    135129995                       # number of demand (read+write) MSHR hits
system.cpu.dcache.overall_mshr_hits::.switch_cpus.data    135129995                       # number of overall MSHR hits
system.cpu.dcache.overall_mshr_hits::total    135129995                       # number of overall MSHR hits
system.cpu.dcache.demand_mshr_misses::.switch_cpus.data     68572535                       # number of demand (read+write) MSHR misses
system.cpu.dcache.demand_mshr_misses::total     68572535                       # number of demand (read+write) MSHR misses
system.cpu.dcache.overall_mshr_misses::.switch_cpus.data     68572535                       # number of overall MSHR misses
system.cpu.dcache.overall_mshr_misses::total     68572535                       # number of overall MSHR misses
system.cpu.dcache.demand_mshr_miss_latency::.switch_cpus.data 1085236976679                       # number of demand (read+write) MSHR miss cycles
system.cpu.dcache.demand_mshr_miss_latency::total 1085236976679                       # number of demand (read+write) MSHR miss cycles
system.cpu.dcache.overall_mshr_miss_latency::.switch_cpus.data 1085236976679                       # number of overall MSHR miss cycles
system.cpu.dcache.overall_mshr_miss_latency::total 1085236976679                       # number of overall MSHR miss cycles
system.cpu.dcache.demand_mshr_miss_rate::.switch_cpus.data     0.090603                       # mshr miss rate for demand accesses
system.cpu.dcache.demand_mshr_miss_rate::total     0.090603                       # mshr miss rate for demand accesses
system.cpu.dcache.overall_mshr_miss_rate::.switch_cpus.data     0.090603                       # mshr miss rate for overall accesses
system.cpu.dcache.overall_mshr_miss_rate::total     0.090603                       # mshr miss rate for overall accesses
system.cpu.dcache.demand_avg_mshr_miss_latency::.switch_cpus.data 15826.117216                       # average overall mshr miss latency
system.cpu.dcache.demand_avg_mshr_miss_latency::total 15826.117216                       # average overall mshr miss latency
system.cpu.dcache.overall_avg_mshr_miss_latency::.switch_cpus.data 15826.117216                       # average overall mshr miss latency
system.cpu.dcache.overall_avg_mshr_miss_latency::total 15826.117216                       # average overall mshr miss latency
system.cpu.dcache.replacements               66270168                       # number of replacements
system.cpu.dcache.ReadReq_hits::.switch_cpus.data    467558420                       # number of ReadReq hits
system.cpu.dcache.ReadReq_hits::total       467558420                       # number of ReadReq hits
system.cpu.dcache.ReadReq_misses::.switch_cpus.data    196080274                       # number of ReadReq misses
system.cpu.dcache.ReadReq_misses::total     196080274                       # number of ReadReq misses
system.cpu.dcache.ReadReq_miss_latency::.switch_cpus.data 3055091792500                       # number of ReadReq miss cycles
system.cpu.dcache.ReadReq_miss_latency::total 3055091792500                       # number of ReadReq miss cycles
system.cpu.dcache.ReadReq_accesses::.switch_cpus.data    663638694                       # number of ReadReq accesses(hits+misses)
system.cpu.dcache.ReadReq_accesses::total    663638694                       # number of ReadReq accesses(hits+misses)
system.cpu.dcache.ReadReq_miss_rate::.switch_cpus.data     0.295462                       # miss rate for ReadReq accesses
system.cpu.dcache.ReadReq_miss_rate::total     0.295462                       # miss rate for ReadReq accesses
system.cpu.dcache.ReadReq_avg_miss_latency::.switch_cpus.data 15580.821723                       # average ReadReq miss latency
system.cpu.dcache.ReadReq_avg_miss_latency::total 15580.821723                       # average ReadReq miss latency
system.cpu.dcache.ReadReq_mshr_hits::.switch_cpus.data    129840584                       # number of ReadReq MSHR hits
system.cpu.dcache.ReadReq_mshr_hits::total    129840584                       # number of ReadReq MSHR hits
system.cpu.dcache.ReadReq_mshr_misses::.switch_cpus.data     66239690                       # number of ReadReq MSHR misses
system.cpu.dcache.ReadReq_mshr_misses::total     66239690                       # number of ReadReq MSHR misses
system.cpu.dcache.ReadReq_mshr_miss_latency::.switch_cpus.data 1041916377500                       # number of ReadReq MSHR miss cycles
system.cpu.dcache.ReadReq_mshr_miss_latency::total 1041916377500                       # number of ReadReq MSHR miss cycles
system.cpu.dcache.ReadReq_mshr_miss_rate::.switch_cpus.data     0.099813                       # mshr miss rate for ReadReq accesses
system.cpu.dcache.ReadReq_mshr_miss_rate::total     0.099813                       # mshr miss rate for ReadReq accesses
system.cpu.dcache.ReadReq_avg_mshr_miss_latency::.switch_cpus.data 15729.487525                       # average ReadReq mshr miss latency
system.cpu.dcache.ReadReq_avg_mshr_miss_latency::total 15729.487525                       # average ReadReq mshr miss latency
system.cpu.dcache.WriteReq_hits::.switch_cpus.data     85581420                       # number of WriteReq hits
system.cpu.dcache.WriteReq_hits::total       85581420                       # number of WriteReq hits
system.cpu.dcache.WriteReq_misses::.switch_cpus.data      7619903                       # number of WriteReq misses
system.cpu.dcache.WriteReq_misses::total      7619903                       # number of WriteReq misses
system.cpu.dcache.WriteReq_miss_latency::.switch_cpus.data 149485568292                       # number of WriteReq miss cycles
system.cpu.dcache.WriteReq_miss_latency::total 149485568292                       # number of WriteReq miss cycles
system.cpu.dcache.WriteReq_accesses::.switch_cpus.data     93201323                       # number of WriteReq accesses(hits+misses)
system.cpu.dcache.WriteReq_accesses::total     93201323                       # number of WriteReq accesses(hits+misses)
system.cpu.dcache.WriteReq_miss_rate::.switch_cpus.data     0.081757                       # miss rate for WriteReq accesses
system.cpu.dcache.WriteReq_miss_rate::total     0.081757                       # miss rate for WriteReq accesses
system.cpu.dcache.WriteReq_avg_miss_latency::.switch_cpus.data 19617.778375                       # average WriteReq miss latency
system.cpu.dcache.WriteReq_avg_miss_latency::total 19617.778375                       # average WriteReq miss latency
system.cpu.dcache.WriteReq_mshr_hits::.switch_cpus.data      5289411                       # number of WriteReq MSHR hits
system.cpu.dcache.WriteReq_mshr_hits::total      5289411                       # number of WriteReq MSHR hits
system.cpu.dcache.WriteReq_mshr_misses::.switch_cpus.data      2330492                       # number of WriteReq MSHR misses
system.cpu.dcache.WriteReq_mshr_misses::total      2330492                       # number of WriteReq MSHR misses
system.cpu.dcache.WriteReq_mshr_miss_latency::.switch_cpus.data  43241424581                       # number of WriteReq MSHR miss cycles
system.cpu.dcache.WriteReq_mshr_miss_latency::total  43241424581                       # number of WriteReq MSHR miss cycles
system.cpu.dcache.WriteReq_mshr_miss_rate::.switch_cpus.data     0.025005                       # mshr miss rate for WriteReq accesses
system.cpu.dcache.WriteReq_mshr_miss_rate::total     0.025005                       # mshr miss rate for WriteReq accesses
system.cpu.dcache.WriteReq_avg_mshr_miss_latency::.switch_cpus.data 18554.633348                       # average WriteReq mshr miss latency
system.cpu.dcache.WriteReq_avg_mshr_miss_latency::total 18554.633348                       # average WriteReq mshr miss latency
system.cpu.dcache.WriteLineReq_misses::.switch_cpus.data         2353                       # number of WriteLineReq misses
system.cpu.dcache.WriteLineReq_misses::total         2353                       # number of WriteLineReq misses
system.cpu.dcache.WriteLineReq_miss_latency::.switch_cpus.data     81527598                       # number of WriteLineReq miss cycles
system.cpu.dcache.WriteLineReq_miss_latency::total     81527598                       # number of WriteLineReq miss cycles
system.cpu.dcache.WriteLineReq_accesses::.switch_cpus.data         2353                       # number of WriteLineReq accesses(hits+misses)
system.cpu.dcache.WriteLineReq_accesses::total         2353                       # number of WriteLineReq accesses(hits+misses)
system.cpu.dcache.WriteLineReq_miss_rate::.switch_cpus.data            1                       # miss rate for WriteLineReq accesses
system.cpu.dcache.WriteLineReq_miss_rate::total            1                       # miss rate for WriteLineReq accesses
system.cpu.dcache.WriteLineReq_avg_miss_latency::.switch_cpus.data 34648.362941                       # average WriteLineReq miss latency
system.cpu.dcache.WriteLineReq_avg_miss_latency::total 34648.362941                       # average WriteLineReq miss latency
system.cpu.dcache.WriteLineReq_mshr_misses::.switch_cpus.data         2353                       # number of WriteLineReq MSHR misses
system.cpu.dcache.WriteLineReq_mshr_misses::total         2353                       # number of WriteLineReq MSHR misses
system.cpu.dcache.WriteLineReq_mshr_miss_latency::.switch_cpus.data     79174598                       # number of WriteLineReq MSHR miss cycles
system.cpu.dcache.WriteLineReq_mshr_miss_latency::total     79174598                       # number of WriteLineReq MSHR miss cycles
system.cpu.dcache.WriteLineReq_mshr_miss_rate::.switch_cpus.data            1                       # mshr miss rate for WriteLineReq accesses
system.cpu.dcache.WriteLineReq_mshr_miss_rate::total            1                       # mshr miss rate for WriteLineReq accesses
system.cpu.dcache.WriteLineReq_avg_mshr_miss_latency::.switch_cpus.data 33648.362941                       # average WriteLineReq mshr miss latency
system.cpu.dcache.WriteLineReq_avg_mshr_miss_latency::total 33648.362941                       # average WriteLineReq mshr miss latency
system.cpu.dcache.SwapReq_hits::.switch_cpus.data         1071                       # number of SwapReq hits
system.cpu.dcache.SwapReq_hits::total            1071                       # number of SwapReq hits
system.cpu.dcache.SwapReq_misses::.switch_cpus.data            5                       # number of SwapReq misses
system.cpu.dcache.SwapReq_misses::total             5                       # number of SwapReq misses
system.cpu.dcache.SwapReq_miss_latency::.switch_cpus.data        94000                       # number of SwapReq miss cycles
system.cpu.dcache.SwapReq_miss_latency::total        94000                       # number of SwapReq miss cycles
system.cpu.dcache.SwapReq_accesses::.switch_cpus.data         1076                       # number of SwapReq accesses(hits+misses)
system.cpu.dcache.SwapReq_accesses::total         1076                       # number of SwapReq accesses(hits+misses)
system.cpu.dcache.SwapReq_miss_rate::.switch_cpus.data     0.004647                       # miss rate for SwapReq accesses
system.cpu.dcache.SwapReq_miss_rate::total     0.004647                       # miss rate for SwapReq accesses
system.cpu.dcache.SwapReq_avg_miss_latency::.switch_cpus.data        18800                       # average SwapReq miss latency
system.cpu.dcache.SwapReq_avg_miss_latency::total        18800                       # average SwapReq miss latency
system.cpu.dcache.SwapReq_mshr_misses::.switch_cpus.data            5                       # number of SwapReq MSHR misses
system.cpu.dcache.SwapReq_mshr_misses::total            5                       # number of SwapReq MSHR misses
system.cpu.dcache.SwapReq_mshr_miss_latency::.switch_cpus.data        89000                       # number of SwapReq MSHR miss cycles
system.cpu.dcache.SwapReq_mshr_miss_latency::total        89000                       # number of SwapReq MSHR miss cycles
system.cpu.dcache.SwapReq_mshr_miss_rate::.switch_cpus.data     0.004647                       # mshr miss rate for SwapReq accesses
system.cpu.dcache.SwapReq_mshr_miss_rate::total     0.004647                       # mshr miss rate for SwapReq accesses
system.cpu.dcache.SwapReq_avg_mshr_miss_latency::.switch_cpus.data        17800                       # average SwapReq mshr miss latency
system.cpu.dcache.SwapReq_avg_mshr_miss_latency::total        17800                       # average SwapReq mshr miss latency
system.cpu.dcache.ghosttags.tagsinuse    -321836138.373849                       # Cycle average of tags in use
system.cpu.dcache.ghosttags.total_refs              0                       # Total number of references to valid blocks.
system.cpu.dcache.ghosttags.sampled_refs            0                       # Sample count of references to valid blocks.
system.cpu.dcache.ghosttags.avg_refs              nan                       # Average number of references to valid blocks.
system.cpu.dcache.ghosttags.warmup_cycle            0                       # Cycle when the warmup percentage was hit.
system.cpu.dcache.ghosttags.occ_blocks::.switch_cpus.data 32975267.613610                       # Average occupied blocks per requestor
system.cpu.dcache.ghosttags.occ_percent::.switch_cpus.data 1030477.112925                       # Average percentage of cache occupancy
system.cpu.dcache.ghosttags.occ_percent::total 1030477.112925                       # Average percentage of cache occupancy
system.cpu.dcache.ghosttags.tag_accesses    479398323                       # Number of tag accesses
system.cpu.dcache.ghosttags.data_accesses    479398323                       # Number of data accesses
system.cpu.dcache.ghosttags.repl_invalid            0                       # Number of initial replacements
system.cpu.dcache.ghosttags.repl_valid_tag            0                       # Number of local replacements
system.cpu.dcache.ghosttags.repl_valid_data            0                       # Number of global replacements
system.cpu.dcache.ghosttags.power_state.pwrStateResidencyTicks::UNDEFINED 6683351231500                       # Cumulative time (in ticks) in various power states
system.cpu.dcache.power_state.pwrStateResidencyTicks::UNDEFINED 6683351231500                       # Cumulative time (in ticks) in various power states
system.cpu.dcache.tags.tagsinuse         -32922520.712849                       # Cycle average of tags in use
system.cpu.dcache.tags.total_refs           687368353                       # Total number of references to valid blocks.
system.cpu.dcache.tags.sampled_refs         132134416                       # Sample count of references to valid blocks.
system.cpu.dcache.tags.avg_refs              5.202039                       # Average number of references to valid blocks.
system.cpu.dcache.tags.warmup_cycle                 0                       # Cycle when the warmup percentage was hit.
system.cpu.dcache.tags.occ_blocks::.cpu.data     0.004101                       # Average occupied blocks per requestor
system.cpu.dcache.tags.occ_blocks::.switch_cpus.data -32922520.716950                       # Average occupied blocks per requestor
system.cpu.dcache.tags.occ_percent::.cpu.data     0.000008                       # Average percentage of cache occupancy
system.cpu.dcache.tags.occ_percent::.switch_cpus.data -64301.798275                       # Average percentage of cache occupancy
system.cpu.dcache.tags.occ_percent::total -64301.798267                       # Average percentage of cache occupancy
system.cpu.dcache.tags.occ_task_id_blocks::1024          512                       # Occupied blocks per task id
system.cpu.dcache.tags.age_task_id_blocks_1024::0          500                       # Occupied blocks per task id
system.cpu.dcache.tags.age_task_id_blocks_1024::1           11                       # Occupied blocks per task id
system.cpu.dcache.tags.age_task_id_blocks_1024::3            1                       # Occupied blocks per task id
system.cpu.dcache.tags.occ_task_id_percent::1024            1                       # Percentage of cache occupancy per task id
system.cpu.dcache.tags.tag_accesses        6120921597                       # Number of tag accesses
system.cpu.dcache.tags.data_accesses       6120921597                       # Number of data accesses
system.cpu.dcache.tags.repl_invalid                 0                       # Number of initial replacements
system.cpu.dcache.tags.repl_valid_tag               0                       # Number of local replacements
system.cpu.dcache.tags.repl_valid_data              0                       # Number of global replacements
system.cpu.dcache.tags.power_state.pwrStateResidencyTicks::UNDEFINED 6683351231500                       # Cumulative time (in ticks) in various power states
system.cpu.dtb.instHits                             0                       # ITB inst hits
system.cpu.dtb.instMisses                           0                       # ITB inst misses
system.cpu.dtb.readHits                             0                       # DTB read hits
system.cpu.dtb.readMisses                           0                       # DTB read misses
system.cpu.dtb.writeHits                            0                       # DTB write hits
system.cpu.dtb.writeMisses                          0                       # DTB write misses
system.cpu.dtb.inserts                              0                       # Number of times an entry is inserted into the TLB
system.cpu.dtb.flushTlb                             0                       # Number of times complete TLB was flushed
system.cpu.dtb.flushTlbMva                          0                       # Number of times TLB was flushed by MVA
system.cpu.dtb.flushTlbMvaAsid                      0                       # Number of times TLB was flushed by MVA & ASID
system.cpu.dtb.flushTlbAsid                         0                       # Number of times TLB was flushed by ASID
system.cpu.dtb.flushedEntries                       0                       # Number of entries that have been flushed from TLB
system.cpu.dtb.alignFaults                          0                       # Number of TLB faults due to alignment restrictions
system.cpu.dtb.prefetchFaults                       0                       # Number of TLB faults due to prefetch
system.cpu.dtb.domainFaults                         0                       # Number of TLB faults due to domain restrictions
system.cpu.dtb.permsFaults                          0                       # Number of TLB faults due to permissions restrictions
system.cpu.dtb.readAccesses                         0                       # DTB read accesses
system.cpu.dtb.writeAccesses                        0                       # DTB write accesses
system.cpu.dtb.instAccesses                         0                       # ITB inst accesses
system.cpu.dtb.hits                                 0                       # Total TLB (inst and data) hits
system.cpu.dtb.misses                               0                       # Total TLB (inst and data) misses
system.cpu.dtb.accesses                             0                       # Total TLB (inst and data) accesses
system.cpu.dtb.stage2_mmu.stage2_tlb.instHits            0                       # ITB inst hits
system.cpu.dtb.stage2_mmu.stage2_tlb.instMisses            0                       # ITB inst misses
system.cpu.dtb.stage2_mmu.stage2_tlb.readHits            0                       # DTB read hits
system.cpu.dtb.stage2_mmu.stage2_tlb.readMisses            0                       # DTB read misses
system.cpu.dtb.stage2_mmu.stage2_tlb.writeHits            0                       # DTB write hits
system.cpu.dtb.stage2_mmu.stage2_tlb.writeMisses            0                       # DTB write misses
system.cpu.dtb.stage2_mmu.stage2_tlb.inserts            0                       # Number of times an entry is inserted into the TLB
system.cpu.dtb.stage2_mmu.stage2_tlb.flushTlb            0                       # Number of times complete TLB was flushed
system.cpu.dtb.stage2_mmu.stage2_tlb.flushTlbMva            0                       # Number of times TLB was flushed by MVA
system.cpu.dtb.stage2_mmu.stage2_tlb.flushTlbMvaAsid            0                       # Number of times TLB was flushed by MVA & ASID
system.cpu.dtb.stage2_mmu.stage2_tlb.flushTlbAsid            0                       # Number of times TLB was flushed by ASID
system.cpu.dtb.stage2_mmu.stage2_tlb.flushedEntries            0                       # Number of entries that have been flushed from TLB
system.cpu.dtb.stage2_mmu.stage2_tlb.alignFaults            0                       # Number of TLB faults due to alignment restrictions
system.cpu.dtb.stage2_mmu.stage2_tlb.prefetchFaults            0                       # Number of TLB faults due to prefetch
system.cpu.dtb.stage2_mmu.stage2_tlb.domainFaults            0                       # Number of TLB faults due to domain restrictions
system.cpu.dtb.stage2_mmu.stage2_tlb.permsFaults            0                       # Number of TLB faults due to permissions restrictions
system.cpu.dtb.stage2_mmu.stage2_tlb.readAccesses            0                       # DTB read accesses
system.cpu.dtb.stage2_mmu.stage2_tlb.writeAccesses            0                       # DTB write accesses
system.cpu.dtb.stage2_mmu.stage2_tlb.instAccesses            0                       # ITB inst accesses
system.cpu.dtb.stage2_mmu.stage2_tlb.hits            0                       # Total TLB (inst and data) hits
system.cpu.dtb.stage2_mmu.stage2_tlb.misses            0                       # Total TLB (inst and data) misses
system.cpu.dtb.stage2_mmu.stage2_tlb.accesses            0                       # Total TLB (inst and data) accesses
system.cpu.dtb.stage2_mmu.stage2_tlb.walker.walks            0                       # Table walker walks requested
system.cpu.dtb.stage2_mmu.stage2_tlb.walker.requestOrigin_Requested::Data            0                       # Table walker requests started/completed, data/inst
system.cpu.dtb.stage2_mmu.stage2_tlb.walker.requestOrigin_Requested::Inst            0                       # Table walker requests started/completed, data/inst
system.cpu.dtb.stage2_mmu.stage2_tlb.walker.requestOrigin_Requested::total            0                       # Table walker requests started/completed, data/inst
system.cpu.dtb.stage2_mmu.stage2_tlb.walker.requestOrigin_Completed::Data            0                       # Table walker requests started/completed, data/inst
system.cpu.dtb.stage2_mmu.stage2_tlb.walker.requestOrigin_Completed::Inst            0                       # Table walker requests started/completed, data/inst
system.cpu.dtb.stage2_mmu.stage2_tlb.walker.requestOrigin_Completed::total            0                       # Table walker requests started/completed, data/inst
system.cpu.dtb.stage2_mmu.stage2_tlb.walker.requestOrigin::total            0                       # Table walker requests started/completed, data/inst
system.cpu.dtb.stage2_mmu.stage2_tlb.walker.power_state.pwrStateResidencyTicks::UNDEFINED 6683351231500                       # Cumulative time (in ticks) in various power states
system.cpu.dtb.walker.walks                         0                       # Table walker walks requested
system.cpu.dtb.walker.requestOrigin_Requested::Data            0                       # Table walker requests started/completed, data/inst
system.cpu.dtb.walker.requestOrigin_Requested::Inst            0                       # Table walker requests started/completed, data/inst
system.cpu.dtb.walker.requestOrigin_Requested::total            0                       # Table walker requests started/completed, data/inst
system.cpu.dtb.walker.requestOrigin_Completed::Data            0                       # Table walker requests started/completed, data/inst
system.cpu.dtb.walker.requestOrigin_Completed::Inst            0                       # Table walker requests started/completed, data/inst
system.cpu.dtb.walker.requestOrigin_Completed::total            0                       # Table walker requests started/completed, data/inst
system.cpu.dtb.walker.requestOrigin::total            0                       # Table walker requests started/completed, data/inst
system.cpu.dtb.walker.power_state.pwrStateResidencyTicks::UNDEFINED 6683351231500                       # Cumulative time (in ticks) in various power states
system.cpu.icache.demand_hits::.switch_cpus.inst    331282558                       # number of demand (read+write) hits
system.cpu.icache.demand_hits::total        331282558                       # number of demand (read+write) hits
system.cpu.icache.overall_hits::.switch_cpus.inst    331282558                       # number of overall hits
system.cpu.icache.overall_hits::total       331282558                       # number of overall hits
system.cpu.icache.demand_misses::.switch_cpus.inst     10610968                       # number of demand (read+write) misses
system.cpu.icache.demand_misses::total       10610968                       # number of demand (read+write) misses
system.cpu.icache.overall_misses::.switch_cpus.inst     10610968                       # number of overall misses
system.cpu.icache.overall_misses::total      10610968                       # number of overall misses
system.cpu.icache.demand_miss_latency::.switch_cpus.inst 192858267031                       # number of demand (read+write) miss cycles
system.cpu.icache.demand_miss_latency::total 192858267031                       # number of demand (read+write) miss cycles
system.cpu.icache.overall_miss_latency::.switch_cpus.inst 192858267031                       # number of overall miss cycles
system.cpu.icache.overall_miss_latency::total 192858267031                       # number of overall miss cycles
system.cpu.icache.demand_accesses::.switch_cpus.inst    341893526                       # number of demand (read+write) accesses
system.cpu.icache.demand_accesses::total    341893526                       # number of demand (read+write) accesses
system.cpu.icache.overall_accesses::.switch_cpus.inst    341893526                       # number of overall (read+write) accesses
system.cpu.icache.overall_accesses::total    341893526                       # number of overall (read+write) accesses
system.cpu.icache.demand_miss_rate::.switch_cpus.inst     0.031036                       # miss rate for demand accesses
system.cpu.icache.demand_miss_rate::total     0.031036                       # miss rate for demand accesses
system.cpu.icache.overall_miss_rate::.switch_cpus.inst     0.031036                       # miss rate for overall accesses
system.cpu.icache.overall_miss_rate::total     0.031036                       # miss rate for overall accesses
system.cpu.icache.demand_avg_miss_latency::.switch_cpus.inst 18175.369771                       # average overall miss latency
system.cpu.icache.demand_avg_miss_latency::total 18175.369771                       # average overall miss latency
system.cpu.icache.overall_avg_miss_latency::.switch_cpus.inst 18175.369771                       # average overall miss latency
system.cpu.icache.overall_avg_miss_latency::total 18175.369771                       # average overall miss latency
system.cpu.icache.blocked_cycles::no_mshrs       540514                       # number of cycles access was blocked
system.cpu.icache.blocked_cycles::no_targets            0                       # number of cycles access was blocked
system.cpu.icache.blocked::no_mshrs             23676                       # number of cycles access was blocked
system.cpu.icache.blocked::no_targets               0                       # number of cycles access was blocked
system.cpu.icache.avg_blocked_cycles::no_mshrs    22.829616                       # average number of cycles each access was blocked
system.cpu.icache.avg_blocked_cycles::no_targets          nan                       # average number of cycles each access was blocked
system.cpu.icache.ghost_timestamp_misses            0                       # number of times timestamp policy causes a block to be inaccessible
system.cpu.icache.ghost_commits               8289723                       # number of cache lines moved from ghost to main
system.cpu.icache.same_leapfrogs                    0                       # number of times leapfrogging occurs with a shared MSHR request
system.cpu.icache.writebacks::.writebacks     16590809                       # number of writebacks
system.cpu.icache.writebacks::total          16590809                       # number of writebacks
system.cpu.icache.demand_mshr_hits::.switch_cpus.inst       419849                       # number of demand (read+write) MSHR hits
system.cpu.icache.demand_mshr_hits::total       419849                       # number of demand (read+write) MSHR hits
system.cpu.icache.overall_mshr_hits::.switch_cpus.inst       419849                       # number of overall MSHR hits
system.cpu.icache.overall_mshr_hits::total       419849                       # number of overall MSHR hits
system.cpu.icache.demand_mshr_misses::.switch_cpus.inst     10191119                       # number of demand (read+write) MSHR misses
system.cpu.icache.demand_mshr_misses::total     10191119                       # number of demand (read+write) MSHR misses
system.cpu.icache.overall_mshr_misses::.switch_cpus.inst     10191119                       # number of overall MSHR misses
system.cpu.icache.overall_mshr_misses::total     10191119                       # number of overall MSHR misses
system.cpu.icache.demand_mshr_miss_latency::.switch_cpus.inst 177339989559                       # number of demand (read+write) MSHR miss cycles
system.cpu.icache.demand_mshr_miss_latency::total 177339989559                       # number of demand (read+write) MSHR miss cycles
system.cpu.icache.overall_mshr_miss_latency::.switch_cpus.inst 177339989559                       # number of overall MSHR miss cycles
system.cpu.icache.overall_mshr_miss_latency::total 177339989559                       # number of overall MSHR miss cycles
system.cpu.icache.demand_mshr_miss_rate::.switch_cpus.inst     0.029808                       # mshr miss rate for demand accesses
system.cpu.icache.demand_mshr_miss_rate::total     0.029808                       # mshr miss rate for demand accesses
system.cpu.icache.overall_mshr_miss_rate::.switch_cpus.inst     0.029808                       # mshr miss rate for overall accesses
system.cpu.icache.overall_mshr_miss_rate::total     0.029808                       # mshr miss rate for overall accesses
system.cpu.icache.demand_avg_mshr_miss_latency::.switch_cpus.inst 17401.424668                       # average overall mshr miss latency
system.cpu.icache.demand_avg_mshr_miss_latency::total 17401.424668                       # average overall mshr miss latency
system.cpu.icache.overall_avg_mshr_miss_latency::.switch_cpus.inst 17401.424668                       # average overall mshr miss latency
system.cpu.icache.overall_avg_mshr_miss_latency::total 17401.424668                       # average overall mshr miss latency
system.cpu.icache.replacements                8290029                       # number of replacements
system.cpu.icache.ReadReq_hits::.switch_cpus.inst    331282558                       # number of ReadReq hits
system.cpu.icache.ReadReq_hits::total       331282558                       # number of ReadReq hits
system.cpu.icache.ReadReq_misses::.switch_cpus.inst     10610968                       # number of ReadReq misses
system.cpu.icache.ReadReq_misses::total      10610968                       # number of ReadReq misses
system.cpu.icache.ReadReq_miss_latency::.switch_cpus.inst 192858267031                       # number of ReadReq miss cycles
system.cpu.icache.ReadReq_miss_latency::total 192858267031                       # number of ReadReq miss cycles
system.cpu.icache.ReadReq_accesses::.switch_cpus.inst    341893526                       # number of ReadReq accesses(hits+misses)
system.cpu.icache.ReadReq_accesses::total    341893526                       # number of ReadReq accesses(hits+misses)
system.cpu.icache.ReadReq_miss_rate::.switch_cpus.inst     0.031036                       # miss rate for ReadReq accesses
system.cpu.icache.ReadReq_miss_rate::total     0.031036                       # miss rate for ReadReq accesses
system.cpu.icache.ReadReq_avg_miss_latency::.switch_cpus.inst 18175.369771                       # average ReadReq miss latency
system.cpu.icache.ReadReq_avg_miss_latency::total 18175.369771                       # average ReadReq miss latency
system.cpu.icache.ReadReq_mshr_hits::.switch_cpus.inst       419849                       # number of ReadReq MSHR hits
system.cpu.icache.ReadReq_mshr_hits::total       419849                       # number of ReadReq MSHR hits
system.cpu.icache.ReadReq_mshr_misses::.switch_cpus.inst     10191119                       # number of ReadReq MSHR misses
system.cpu.icache.ReadReq_mshr_misses::total     10191119                       # number of ReadReq MSHR misses
system.cpu.icache.ReadReq_mshr_miss_latency::.switch_cpus.inst 177339989559                       # number of ReadReq MSHR miss cycles
system.cpu.icache.ReadReq_mshr_miss_latency::total 177339989559                       # number of ReadReq MSHR miss cycles
system.cpu.icache.ReadReq_mshr_miss_rate::.switch_cpus.inst     0.029808                       # mshr miss rate for ReadReq accesses
system.cpu.icache.ReadReq_mshr_miss_rate::total     0.029808                       # mshr miss rate for ReadReq accesses
system.cpu.icache.ReadReq_avg_mshr_miss_latency::.switch_cpus.inst 17401.424668                       # average ReadReq mshr miss latency
system.cpu.icache.ReadReq_avg_mshr_miss_latency::total 17401.424668                       # average ReadReq mshr miss latency
system.cpu.icache.ghosttags.tagsinuse    -65714082.779362                       # Cycle average of tags in use
system.cpu.icache.ghosttags.total_refs              0                       # Total number of references to valid blocks.
system.cpu.icache.ghosttags.sampled_refs            0                       # Sample count of references to valid blocks.
system.cpu.icache.ghosttags.avg_refs              nan                       # Average number of references to valid blocks.
system.cpu.icache.ghosttags.warmup_cycle            0                       # Cycle when the warmup percentage was hit.
system.cpu.icache.ghosttags.occ_blocks::.switch_cpus.inst 5122689.925956                       # Average occupied blocks per requestor
system.cpu.icache.ghosttags.occ_percent::.switch_cpus.inst 160084.060186                       # Average percentage of cache occupancy
system.cpu.icache.ghosttags.occ_percent::total 160084.060186                       # Average percentage of cache occupancy
system.cpu.icache.ghosttags.tag_accesses     34501360                       # Number of tag accesses
system.cpu.icache.ghosttags.data_accesses     34501360                       # Number of data accesses
system.cpu.icache.ghosttags.repl_invalid            0                       # Number of initial replacements
system.cpu.icache.ghosttags.repl_valid_tag            0                       # Number of local replacements
system.cpu.icache.ghosttags.repl_valid_data            0                       # Number of global replacements
system.cpu.icache.ghosttags.power_state.pwrStateResidencyTicks::UNDEFINED 6683351231500                       # Cumulative time (in ticks) in various power states
system.cpu.icache.power_state.pwrStateResidencyTicks::UNDEFINED 6683351231500                       # Cumulative time (in ticks) in various power states
system.cpu.icache.tags.tagsinuse         -5122177.752673                       # Cycle average of tags in use
system.cpu.icache.tags.total_refs           354640840                       # Total number of references to valid blocks.
system.cpu.icache.tags.sampled_refs          18469991                       # Sample count of references to valid blocks.
system.cpu.icache.tags.avg_refs             19.200921                       # Average number of references to valid blocks.
system.cpu.icache.tags.warmup_cycle                 0                       # Cycle when the warmup percentage was hit.
system.cpu.icache.tags.occ_blocks::.cpu.inst     2.358015                       # Average occupied blocks per requestor
system.cpu.icache.tags.occ_blocks::.switch_cpus.inst -5122180.110688                       # Average occupied blocks per requestor
system.cpu.icache.tags.occ_percent::.cpu.inst     0.004605                       # Average percentage of cache occupancy
system.cpu.icache.tags.occ_percent::.switch_cpus.inst -10004.258029                       # Average percentage of cache occupancy
system.cpu.icache.tags.occ_percent::total -10004.253423                       # Average percentage of cache occupancy
system.cpu.icache.tags.occ_task_id_blocks::1024          512                       # Occupied blocks per task id
system.cpu.icache.tags.age_task_id_blocks_1024::1          380                       # Occupied blocks per task id
system.cpu.icache.tags.age_task_id_blocks_1024::2          116                       # Occupied blocks per task id
system.cpu.icache.tags.age_task_id_blocks_1024::3            7                       # Occupied blocks per task id
system.cpu.icache.tags.age_task_id_blocks_1024::4            9                       # Occupied blocks per task id
system.cpu.icache.tags.occ_task_id_percent::1024            1                       # Percentage of cache occupancy per task id
system.cpu.icache.tags.tag_accesses        2743437931                       # Number of tag accesses
system.cpu.icache.tags.data_accesses       2743437931                       # Number of data accesses
system.cpu.icache.tags.repl_invalid                 0                       # Number of initial replacements
system.cpu.icache.tags.repl_valid_tag               0                       # Number of local replacements
system.cpu.icache.tags.repl_valid_data              0                       # Number of global replacements
system.cpu.icache.tags.power_state.pwrStateResidencyTicks::UNDEFINED 6683351231500                       # Cumulative time (in ticks) in various power states
system.cpu.itb.instHits                             0                       # ITB inst hits
system.cpu.itb.instMisses                           0                       # ITB inst misses
system.cpu.itb.readHits                             0                       # DTB read hits
system.cpu.itb.readMisses                           0                       # DTB read misses
system.cpu.itb.writeHits                            0                       # DTB write hits
system.cpu.itb.writeMisses                          0                       # DTB write misses
system.cpu.itb.inserts                              0                       # Number of times an entry is inserted into the TLB
system.cpu.itb.flushTlb                             0                       # Number of times complete TLB was flushed
system.cpu.itb.flushTlbMva                          0                       # Number of times TLB was flushed by MVA
system.cpu.itb.flushTlbMvaAsid                      0                       # Number of times TLB was flushed by MVA & ASID
system.cpu.itb.flushTlbAsid                         0                       # Number of times TLB was flushed by ASID
system.cpu.itb.flushedEntries                       0                       # Number of entries that have been flushed from TLB
system.cpu.itb.alignFaults                          0                       # Number of TLB faults due to alignment restrictions
system.cpu.itb.prefetchFaults                       0                       # Number of TLB faults due to prefetch
system.cpu.itb.domainFaults                         0                       # Number of TLB faults due to domain restrictions
[...]
system.switch_cpus.fetch.cycles            1315354315                       # Number of cycles fetch has run and was not squashing or blocked
system.switch_cpus.fetch.squashCycles        13238884                       # Number of cycles fetch has spent squashing
system.switch_cpus.fetch.miscStallCycles        18564                       # Number of cycles fetch has spent waiting on interrupts,or bad addresses, or out of MSHRs
system.switch_cpus.fetch.pendingTrapStallCycles         7930                       # Number of stall cycles due to pending traps
system.switch_cpus.fetch.icacheWaitRetryStallCycles        40704                       # Number of stall cycles due to full MSHR
system.switch_cpus.fetch.cacheLines         341893811                       # Number of cache lines fetched
system.switch_cpus.fetch.icacheSquashes       3141981                       # Number of outstanding Icache misses that were squashed
system.switch_cpus.fetch.nisnDist::samples   1871603159                       # Number of instructions fetched each cycle (Total)
system.switch_cpus.fetch.nisnDist::mean      1.338331                       # Number of instructions fetched each cycle (Total)
system.switch_cpus.fetch.nisnDist::stdev     2.407043                       # Number of instructions fetched each cycle (Total)
system.switch_cpus.fetch.nisnDist::underflows            0      0.00%      0.00% # Number of instructions fetched each cycle (Total)
system.switch_cpus.fetch.nisnDist::0       1273680320     68.05%     68.05% # Number of instructions fetched each cycle (Total)
system.switch_cpus.fetch.nisnDist::1         86677814      4.63%     72.68% # Number of instructions fetched each cycle (Total)
system.switch_cpus.fetch.nisnDist::2         87181958      4.66%     77.34% # Number of instructions fetched each cycle (Total)
system.switch_cpus.fetch.nisnDist::3        143261148      7.65%     85.00% # Number of instructions fetched each cycle (Total)
system.switch_cpus.fetch.nisnDist::4         65758938      3.51%     88.51% # Number of instructions fetched each cycle (Total)
system.switch_cpus.fetch.nisnDist::5         19523666      1.04%     89.55% # Number of instructions fetched each cycle (Total)
system.switch_cpus.fetch.nisnDist::6         39993082      2.14%     91.69% # Number of instructions fetched each cycle (Total)
system.switch_cpus.fetch.nisnDist::7         30822353      1.65%     93.34% # Number of instructions fetched each cycle (Total)
system.switch_cpus.fetch.nisnDist::8        124703880      6.66%    100.00% # Number of instructions fetched each cycle (Total)
system.switch_cpus.fetch.nisnDist::overflows            0      0.00%    100.00% # Number of instructions fetched each cycle (Total)
system.switch_cpus.fetch.nisnDist::min_value            0                       # Number of instructions fetched each cycle (Total)
system.switch_cpus.fetch.nisnDist::max_value            8                       # Number of instructions fetched each cycle (Total)
system.switch_cpus.fetch.nisnDist::total   1871603159                       # Number of instructions fetched each cycle (Total)
system.switch_cpus.fetch.branchRate          0.344552                       # Number of branch fetches per cycle
system.switch_cpus.fetch.rate                1.147427                       # Number of inst fetches per cycle
system.switch_cpus.itb.instHits                     0                       # ITB inst hits
system.switch_cpus.itb.instMisses                   0                       # ITB inst misses
system.switch_cpus.itb.readHits                     0                       # DTB read hits
system.switch_cpus.itb.readMisses                   0                       # DTB read misses
system.switch_cpus.itb.writeHits                    0                       # DTB write hits
system.switch_cpus.itb.writeMisses                  0                       # DTB write misses
system.switch_cpus.itb.inserts                      0                       # Number of times an entry is inserted into the TLB
system.switch_cpus.itb.flushTlb                     2                       # Number of times complete TLB was flushed
system.switch_cpus.itb.flushTlbMva                  0                       # Number of times TLB was flushed by MVA
system.switch_cpus.itb.flushTlbMvaAsid              0                       # Number of times TLB was flushed by MVA & ASID
system.switch_cpus.itb.flushTlbAsid                 0                       # Number of times TLB was flushed by ASID
system.switch_cpus.itb.flushedEntries               0                       # Number of entries that have been flushed from TLB
system.switch_cpus.itb.alignFaults                  0                       # Number of TLB faults due to alignment restrictions
system.switch_cpus.itb.prefetchFaults               0                       # Number of TLB faults due to prefetch
system.switch_cpus.itb.domainFaults                 0                       # Number of TLB faults due to domain restrictions
system.switch_cpus.itb.permsFaults                  0                       # Number of TLB faults due to permissions restrictions
system.switch_cpus.itb.readAccesses                 0                       # DTB read accesses
system.switch_cpus.itb.writeAccesses                0                       # DTB write accesses
system.switch_cpus.itb.instAccesses                 0                       # ITB inst accesses
system.switch_cpus.itb.hits                         0                       # Total TLB (inst and data) hits
system.switch_cpus.itb.misses                       0                       # Total TLB (inst and data) misses
system.switch_cpus.itb.accesses                     0                       # Total TLB (inst and data) accesses
system.switch_cpus.itb.stage2_mmu.stage2_tlb.instHits            0                       # ITB inst hits
system.switch_cpus.itb.stage2_mmu.stage2_tlb.instMisses            0                       # ITB inst misses
system.switch_cpus.itb.stage2_mmu.stage2_tlb.readHits            0                       # DTB read hits
system.switch_cpus.itb.stage2_mmu.stage2_tlb.readMisses            0                       # DTB read misses
system.switch_cpus.itb.stage2_mmu.stage2_tlb.writeHits            0                       # DTB write hits
system.switch_cpus.itb.stage2_mmu.stage2_tlb.writeMisses            0                       # DTB write misses
system.switch_cpus.itb.stage2_mmu.stage2_tlb.inserts            0                       # Number of times an entry is inserted into the TLB
system.switch_cpus.itb.stage2_mmu.stage2_tlb.flushTlb            0                       # Number of times complete TLB was flushed
system.switch_cpus.itb.stage2_mmu.stage2_tlb.flushTlbMva            0                       # Number of times TLB was flushed by MVA
system.switch_cpus.itb.stage2_mmu.stage2_tlb.flushTlbMvaAsid            0                       # Number of times TLB was flushed by MVA & ASID
system.switch_cpus.itb.stage2_mmu.stage2_tlb.flushTlbAsid            0                       # Number of times TLB was flushed by ASID
system.switch_cpus.itb.stage2_mmu.stage2_tlb.flushedEntries            0                       # Number of entries that have been flushed from TLB
system.switch_cpus.itb.stage2_mmu.stage2_tlb.alignFaults            0                       # Number of TLB faults due to alignment restrictions
system.switch_cpus.itb.stage2_mmu.stage2_tlb.prefetchFaults            0                       # Number of TLB faults due to prefetch
system.switch_cpus.itb.stage2_mmu.stage2_tlb.domainFaults            0                       # Number of TLB faults due to domain restrictions
system.switch_cpus.itb.stage2_mmu.stage2_tlb.permsFaults            0                       # Number of TLB faults due to permissions restrictions
system.switch_cpus.itb.stage2_mmu.stage2_tlb.readAccesses            0                       # DTB read accesses
system.switch_cpus.itb.stage2_mmu.stage2_tlb.writeAccesses            0                       # DTB write accesses
system.switch_cpus.itb.stage2_mmu.stage2_tlb.instAccesses            0                       # ITB inst accesses
system.switch_cpus.itb.stage2_mmu.stage2_tlb.hits            0                       # Total TLB (inst and data) hits
system.switch_cpus.itb.stage2_mmu.stage2_tlb.misses            0                       # Total TLB (inst and data) misses
system.switch_cpus.itb.stage2_mmu.stage2_tlb.accesses            0                       # Total TLB (inst and data) accesses
system.switch_cpus.itb.stage2_mmu.stage2_tlb.walker.walks            0                       # Table walker walks requested
system.switch_cpus.itb.stage2_mmu.stage2_tlb.walker.requestOrigin_Requested::Data            0                       # Table walker requests started/completed, data/inst
system.switch_cpus.itb.stage2_mmu.stage2_tlb.walker.requestOrigin_Requested::Inst            0                       # Table walker requests started/completed, data/inst
system.switch_cpus.itb.stage2_mmu.stage2_tlb.walker.requestOrigin_Requested::total            0                       # Table walker requests started/completed, data/inst
system.switch_cpus.itb.stage2_mmu.stage2_tlb.walker.requestOrigin_Completed::Data            0                       # Table walker requests started/completed, data/inst
system.switch_cpus.itb.stage2_mmu.stage2_tlb.walker.requestOrigin_Completed::Inst            0                       # Table walker requests started/completed, data/inst
system.switch_cpus.itb.stage2_mmu.stage2_tlb.walker.requestOrigin_Completed::total            0                       # Table walker requests started/completed, data/inst
system.switch_cpus.itb.stage2_mmu.stage2_tlb.walker.requestOrigin::total            0                       # Table walker requests started/completed, data/inst
system.switch_cpus.itb.stage2_mmu.stage2_tlb.walker.power_state.pwrStateResidencyTicks::UNDEFINED 6683351231500                       # Cumulative time (in ticks) in various power states
system.switch_cpus.itb.walker.walks                 0                       # Table walker walks requested
system.switch_cpus.itb.walker.requestOrigin_Requested::Data            0                       # Table walker requests started/completed, data/inst
system.switch_cpus.itb.walker.requestOrigin_Requested::Inst            0                       # Table walker requests started/completed, data/inst
system.switch_cpus.itb.walker.requestOrigin_Requested::total            0                       # Table walker requests started/completed, data/inst
system.switch_cpus.itb.walker.requestOrigin_Completed::Data            0                       # Table walker requests started/completed, data/inst
system.switch_cpus.itb.walker.requestOrigin_Completed::Inst            0                       # Table walker requests started/completed, data/inst
system.switch_cpus.itb.walker.requestOrigin_Completed::total            0                       # Table walker requests started/completed, data/inst
system.switch_cpus.itb.walker.requestOrigin::total            0                       # Table walker requests started/completed, data/inst
system.switch_cpus.itb.walker.power_state.pwrStateResidencyTicks::UNDEFINED 6683351231500                       # Cumulative time (in ticks) in various power states
system.switch_cpus.lsq0.forwLoads             3660617                       # Number of loads that had data forwarded from stores
system.switch_cpus.lsq0.squashedLoads        36852940                       # Number of loads squashed
system.switch_cpus.lsq0.ignoredResponses        10905                       # Number of memory responses ignored because the instruction is squashed
system.switch_cpus.lsq0.memOrderViolation        51080                       # Number of memory ordering violations
system.switch_cpus.lsq0.squashedStores        7309416                       # Number of stores squashed
system.switch_cpus.lsq0.rescheduledLoads     12856951                       # Number of loads that were rescheduled
system.switch_cpus.lsq0.blockedByCache        4925973                       # Number of times an access to memory failed due to the cache being blocked
system.switch_cpus.power_state.pwrStateResidencyTicks::OFF 6683351231500                       # Cumulative time (in ticks) in various power states
system.switch_cpus.rename.squashCycles        5888165                       # Number of cycles rename is squashing
system.switch_cpus.rename.idleCycles        419560044                       # Number of cycles rename is idle
system.switch_cpus.rename.blockCycles       341952754                       # Number of cycles rename is blocking
system.switch_cpus.rename.serializeStallCycles     15805261                       # count of cycles rename stalledfor serializing inst
system.switch_cpus.rename.runCycles         372166546                       # Number of cycles rename is running
system.switch_cpus.rename.unblockCycles     716230384                       # Number of cycles rename is unblocking
system.switch_cpus.rename.renamedInsts     2458849235                       # Number of instructions processed by rename
system.switch_cpus.rename.ROBFullEvents        116434                       # Number of times rename has blocked due to ROB full
system.switch_cpus.rename.IQFullEvents      117975225                       # Number of times rename has blocked due to IQ full
system.switch_cpus.rename.LQFullEvents      641778173                       # Number of times rename has blocked due to LQ full
system.switch_cpus.rename.SQFullEvents        5371643                       # Number of times rename has blocked due to SQ full
system.switch_cpus.rename.renamedOperands   2488618019                       # Number of destination operands rename has renamed
system.switch_cpus.rename.lookups          3581622524                       # Number of register rename lookups that rename has made
system.switch_cpus.rename.intLookups       2789201133                       # Number of integer rename lookups
system.switch_cpus.rename.vecLookups          5075549                       # Number of vector rename lookups
system.switch_cpus.rename.vecPredLookups       635576                       # Number of vector predicate rename lookups
system.switch_cpus.rename.committedMaps    2323152511                       # Number of HB maps that are committed
system.switch_cpus.rename.undoneMaps        165465421                       # Number of HB maps that are undone due to squashing
system.switch_cpus.rename.serializing          650198                       # count of serializing insts renamed
system.switch_cpus.rename.tempSerializing         1752                       # count of temporary serializing insts renamed
system.switch_cpus.rename.skidInsts         533774267                       # count of insts added to the skid buffer
system.switch_cpus.rob.reads               4087650263                       # The number of ROB reads
system.switch_cpus.rob.writes              4891451108                       # The number of ROB writes
system.switch_cpus.thread0.numInsts        2000000006                       # Number of Instructions committed
system.switch_cpus.thread0.numOps          2268303567                       # Number of Ops committed
system.switch_cpus.thread0.numMemRefs               0                       # Number of Memory References
system.tol2bus.trans_dist::ReadResp          76430785                       # Transaction distribution
system.tol2bus.trans_dist::WritebackDirty      2546140                       # Transaction distribution
system.tol2bus.trans_dist::WritebackClean     72315481                       # Transaction distribution
system.tol2bus.trans_dist::CleanEvict         4036808                       # Transaction distribution
system.tol2bus.trans_dist::HardPFReq           174570                       # Transaction distribution
system.tol2bus.trans_dist::UpgradeReq         1143624                       # Transaction distribution
system.tol2bus.trans_dist::UpgradeResp        1143624                       # Transaction distribution
system.tol2bus.trans_dist::ReadExReq          1180714                       # Transaction distribution
system.tol2bus.trans_dist::ReadExResp         1180714                       # Transaction distribution
system.tol2bus.trans_dist::ReadCleanReq      76430786                       # Transaction distribution
system.tol2bus.trans_dist::InvalidateReq         9006                       # Transaction distribution
system.tol2bus.trans_dist::InvalidateResp         9006                       # Transaction distribution
system.tol2bus.pkt_count_system.cpu.icache.mem_side_port::system.l2.cpu_side_port     30573310                       # Packet count per connected requestor and responder (bytes)
system.tol2bus.pkt_count_system.cpu.dcache.mem_side_port::system.l2.cpu_side_port    204471241                       # Packet count per connected requestor and responder (bytes)
system.tol2bus.pkt_count::total             235044551                       # Packet count per connected requestor and responder (bytes)
system.tol2bus.pkt_size_system.cpu.icache.mem_side_port::system.l2.cpu_side_port   1183499584                       # Cumulative packet size per connected requestor and responder (bytes)
system.tol2bus.pkt_size_system.cpu.dcache.mem_side_port::system.l2.cpu_side_port   8561162624                       # Cumulative packet size per connected requestor and responder (bytes)
system.tol2bus.pkt_size::total             9744662208                       # Cumulative packet size per connected requestor and responder (bytes)
system.tol2bus.snoops                         1556707                       # Total snoops (count)
system.tol2bus.snoopTraffic                  13617472                       # Total snoop traffic (bytes)
system.tol2bus.snoop_fanout::samples         80320813                       # Request fanout histogram
system.tol2bus.snoop_fanout::mean            0.010801                       # Request fanout histogram
system.tol2bus.snoop_fanout::stdev           0.103365                       # Request fanout histogram
system.tol2bus.snoop_fanout::underflows             0      0.00%      0.00% # Request fanout histogram
system.tol2bus.snoop_fanout::0               79453285     98.92%     98.92% # Request fanout histogram
system.tol2bus.snoop_fanout::1                 867525      1.08%    100.00% # Request fanout histogram
system.tol2bus.snoop_fanout::2                      3      0.00%    100.00% # Request fanout histogram
system.tol2bus.snoop_fanout::overflows              0      0.00%    100.00% # Request fanout histogram
system.tol2bus.snoop_fanout::min_value              0                       # Request fanout histogram
system.tol2bus.snoop_fanout::max_value              2                       # Request fanout histogram
system.tol2bus.snoop_fanout::total           80320813                       # Request fanout histogram
system.tol2bus.power_state.pwrStateResidencyTicks::UNDEFINED 6683351231500                       # Cumulative time (in ticks) in various power states
system.tol2bus.reqLayer0.occupancy       176707644535                       # Layer occupancy (ticks)
system.tol2bus.reqLayer0.utilization             18.3                       # Layer utilization (%)
system.tol2bus.respLayer0.occupancy       15303583123                       # Layer occupancy (ticks)
system.tol2bus.respLayer0.utilization             1.6                       # Layer utilization (%)
system.tol2bus.respLayer1.occupancy      101709367525                       # Layer occupancy (ticks)
system.tol2bus.respLayer1.utilization            10.5                       # Layer utilization (%)
system.voltage_domain.voltage                       1                       # Voltage in Volts

---------- End Simulation Statistics   ----------
