
---------- Begin Simulation Statistics ----------
final_tick                               5851112166500                       # Number of ticks from beginning of simulation (restored from checkpoints and never reset)
host_inst_rate                                 569004                       # Simulator instruction rate (inst/s)
host_mem_usage                               18778092                       # Number of bytes of host memory used
host_op_rate                                   611333                       # Simulator op (including micro ops) rate (op/s)
host_seconds                                  3514.92                       # Real time elapsed on the host
host_tick_rate                              146469785                       # Simulator tick rate (ticks/s)
sim_freq                                 1000000000000                       # Frequency of simulated ticks
sim_insts                                  2000000020                       # Number of instructions simulated
sim_ops                                    2148782989                       # Number of ops (including micro ops) simulated
sim_seconds                                  0.514829                       # Number of seconds simulated
sim_ticks                                514829079500                       # Number of ticks simulated
system.cpu.Branches                                 3                       # Number of branches fetched
system.cpu.committedInsts                          20                       # Number of instructions committed
system.cpu.committedOps                            20                       # Number of ops (including micro ops) committed
system.cpu.dcache.MSHRs.leapFrogMisses           2696                       # number of false blocks from MSHR
system.cpu.icache.MSHRs.leapFrogMisses              0                       # number of false blocks from MSHR
system.cpu.idle_fraction                            0                       # Percentage of idle cycles
system.cpu.not_idle_fraction                        1                       # Percentage of non-idle cycles
system.cpu.numCycles                               20                       # number of cpu cycles simulated
system.cpu.numWorkItemsCompleted                    0                       # number of work items this cpu completed
system.cpu.numWorkItemsStarted                      0                       # number of work items this cpu started
system.cpu.num_busy_cycles                         20                       # Number of busy cycles
system.cpu.num_cc_register_reads                   12                       # number of times the CC registers were read
system.cpu.num_cc_register_writes                   9                       # number of times the CC registers were written
system.cpu.num_conditional_control_insts            1                       # number of instructions that are conditional controls
system.cpu.num_fp_alu_accesses                      0                       # Number of float alu accesses
system.cpu.num_fp_insts                             0                       # number of float instructions
system.cpu.num_fp_register_reads                    0                       # number of times the floating registers were read
system.cpu.num_fp_register_writes                   0                       # number of times the floating registers were written
system.cpu.num_func_calls                           2                       # number of times a function call or return occured
system.cpu.num_idle_cycles                          0                       # Number of idle cycles
system.cpu.num_int_alu_accesses                    20                       # Number of integer alu accesses
system.cpu.num_int_insts                           20                       # number of integer instructions
system.cpu.num_int_register_reads                  31                       # number of times the integer registers were read
system.cpu.num_int_register_writes                 18                       # number of times the integer registers were written
system.cpu.num_load_insts                           5                       # Number of load instructions
system.cpu.num_mem_refs                             5                       # number of memory refs
system.cpu.num_store_insts                          0                       # Number of store instructions
system.cpu.num_vec_alu_accesses                     0                       # Number of vector alu accesses
system.cpu.num_vec_insts                            0                       # number of vector instructions
system.cpu.num_vec_register_reads                   0                       # number of times the vector registers were read
system.cpu.num_vec_register_writes                  0                       # number of times the vector registers were written
system.cpu.op_class::No_OpClass                     0      0.00%      0.00% # Class of executed instruction
system.cpu.op_class::IntAlu                        14     70.00%     70.00% # Class of executed instruction
system.cpu.op_class::IntMult                        1      5.00%     75.00% # Class of executed instruction
system.cpu.op_class::IntDiv                         0      0.00%     75.00% # Class of executed instruction
system.cpu.op_class::FloatAdd                       0      0.00%     75.00% # Class of executed instruction
system.cpu.op_class::FloatCmp                       0      0.00%     75.00% # Class of executed instruction
system.cpu.op_class::FloatCvt                       0      0.00%     75.00% # Class of executed instruction
system.cpu.op_class::FloatMult                      0      0.00%     75.00% # Class of executed instruction
system.cpu.op_class::FloatMultAcc                   0      0.00%     75.00% # Class of executed instruction
system.cpu.op_class::FloatDiv                       0      0.00%     75.00% # Class of executed instruction
system.cpu.op_class::FloatMisc                      0      0.00%     75.00% # Class of executed instruction
system.cpu.op_class::FloatSqrt                      0      0.00%     75.00% # Class of executed instruction
system.cpu.op_class::SimdAdd                        0      0.00%     75.00% # Class of executed instruction
system.cpu.op_class::SimdAddAcc                     0      0.00%     75.00% # Class of executed instruction
system.cpu.op_class::SimdAlu                        0      0.00%     75.00% # Class of executed instruction
system.cpu.op_class::SimdCmp                        0      0.00%     75.00% # Class of executed instruction
system.cpu.op_class::SimdCvt                        0      0.00%     75.00% # Class of executed instruction
system.cpu.op_class::SimdMisc                       0      0.00%     75.00% # Class of executed instruction
system.cpu.op_class::SimdMult                       0      0.00%     75.00% # Class of executed instruction
system.cpu.op_class::SimdMultAcc                    0      0.00%     75.00% # Class of executed instruction
system.cpu.op_class::SimdShift                      0      0.00%     75.00% # Class of executed instruction
system.cpu.op_class::SimdShiftAcc                   0      0.00%     75.00% # Class of executed instruction
system.cpu.op_class::SimdDiv                        0      0.00%     75.00% # Class of executed instruction
system.cpu.op_class::SimdSqrt                       0      0.00%     75.00% # Class of executed instruction
system.cpu.op_class::SimdFloatAdd                   0      0.00%     75.00% # Class of executed instruction
system.cpu.op_class::SimdFloatAlu                   0      0.00%     75.00% # Class of executed instruction
system.cpu.op_class::SimdFloatCmp                   0      0.00%     75.00% # Class of executed instruction
system.cpu.op_class::SimdFloatCvt                   0      0.00%     75.00% # Class of executed instruction
system.cpu.op_class::SimdFloatDiv                   0      0.00%     75.00% # Class of executed instruction
system.cpu.op_class::SimdFloatMisc                  0      0.00%     75.00% # Class of executed instruction
system.cpu.op_class::SimdFloatMult                  0      0.00%     75.00% # Class of executed instruction
system.cpu.op_class::SimdFloatMultAcc               0      0.00%     75.00% # Class of executed instruction
system.cpu.op_class::SimdFloatSqrt                  0      0.00%     75.00% # Class of executed instruction
system.cpu.op_class::SimdReduceAdd                  0      0.00%     75.00% # Class of executed instruction
system.cpu.op_class::SimdReduceAlu                  0      0.00%     75.00% # Class of executed instruction
system.cpu.op_class::SimdReduceCmp                  0      0.00%     75.00% # Class of executed instruction
system.cpu.op_class::SimdFloatReduceAdd             0      0.00%     75.00% # Class of executed instruction
system.cpu.op_class::SimdFloatReduceCmp             0      0.00%     75.00% # Class of executed instruction
system.cpu.op_class::SimdAes                        0      0.00%     75.00% # Class of executed instruction
system.cpu.op_class::SimdAesMix                     0      0.00%     75.00% # Class of executed instruction
system.cpu.op_class::SimdSha1Hash                   0      0.00%     75.00% # Class of executed instruction
system.cpu.op_class::SimdSha1Hash2                  0      0.00%     75.00% # Class of executed instruction
system.cpu.op_class::SimdSha256Hash                 0      0.00%     75.00% # Class of executed instruction
system.cpu.op_class::SimdSha256Hash2                0      0.00%     75.00% # Class of executed instruction
system.cpu.op_class::SimdShaSigma2                  0      0.00%     75.00% # Class of executed instruction
system.cpu.op_class::SimdShaSigma3                  0      0.00%     75.00% # Class of executed instruction
system.cpu.op_class::SimdPredAlu                    0      0.00%     75.00% # Class of executed instruction
system.cpu.op_class::MemRead                        5     25.00%    100.00% # Class of executed instruction
system.cpu.op_class::MemWrite                       0      0.00%    100.00% # Class of executed instruction
system.cpu.op_class::FloatMemRead                   0      0.00%    100.00% # Class of executed instruction
system.cpu.op_class::FloatMemWrite                  0      0.00%    100.00% # Class of executed instruction
system.cpu.op_class::IprAccess                      0      0.00%    100.00% # Class of executed instruction
system.cpu.op_class::InstPrefetch                   0      0.00%    100.00% # Class of executed instruction
system.cpu.op_class::total                         20                       # Class of executed instruction
system.cpu.workload.numSyscalls                     6                       # Number of system calls
system.l2.MSHRs.leapFrogMisses                      0                       # number of false blocks from MSHR
system.membus.snoop_filter.hit_multi_requests            0                       # Number of requests hitting in the snoop filter with multiple (>1) holders of the requested data.
system.membus.snoop_filter.hit_multi_snoops            0                       # Number of snoops hitting in the snoop filter with multiple (>1) holders of the requested data.
system.membus.snoop_filter.hit_single_requests      1004427                       # Number of requests hitting in the snoop filter with a single holder of the requested data.
system.membus.snoop_filter.hit_single_snoops            0                       # Number of snoops hitting in the snoop filter with a single holder of the requested data.
system.membus.snoop_filter.tot_requests       1786658                       # Total number of requests made to the snoop filter.
system.membus.snoop_filter.tot_snoops               0                       # Total number of snoops made to the snoop filter.
system.switch_cpus.cc_regfile_reads         632760990                       # number of cc regfile reads
system.switch_cpus.cc_regfile_writes        599273448                       # number of cc regfile writes
system.switch_cpus.committedInsts          2000000000                       # Number of Instructions Simulated
system.switch_cpus.committedOps            2148782969                       # Number of Ops (including micro ops) Simulated
system.switch_cpus.cpi                       0.514830                       # CPI: Cycles Per Instruction
system.switch_cpus.cpi_total                 0.514830                       # CPI: Total CPI of All Threads
system.switch_cpus.idleCycles                 4953687                       # Total number of cycles that the CPU has spent unscheduled due to idling
system.switch_cpus.iew.branchMispredicts     20178515                       # Number of branch mispredicts detected at execute
system.switch_cpus.iew.exec_branches        311284647                       # Number of branches executed
system.switch_cpus.iew.exec_nop               4347966                       # number of nop insts executed
system.switch_cpus.iew.exec_rate             2.329419                       # Inst execution rate
system.switch_cpus.iew.exec_refs            739759613                       # number of memory reference insts executed
system.switch_cpus.iew.exec_stores          215167580                       # Number of stores executed
system.switch_cpus.iew.exec_swp                     0                       # number of swp insts executed
system.switch_cpus.iew.iewBlockCycles        46064090                       # Number of cycles IEW is blocking
system.switch_cpus.iew.iewDispLoadInsts     551516871                       # Number of dispatched load instructions
system.switch_cpus.iew.iewDispNonSpecInsts            6                       # Number of dispatched non-speculative instructions
system.switch_cpus.iew.iewDispSquashedInsts     10794686                       # Number of squashed instructions skipped by dispatch
system.switch_cpus.iew.iewDispStoreInsts    234549403                       # Number of dispatched store instructions
system.switch_cpus.iew.iewDispatchedInsts   2577147615                       # Number of instructions dispatched to IQ
system.switch_cpus.iew.iewExecLoadInsts     524592033                       # Number of load instructions executed
system.switch_cpus.iew.iewExecSquashedInsts     34343711                       # Number of squashed instructions skipped in execute
system.switch_cpus.iew.iewExecutedInsts    2398507857                       # Number of executed instructions
system.switch_cpus.iew.iewIQFullEvents         531362                       # Number of times the IQ has become full, causing a stall
system.switch_cpus.iew.iewIdleCycles                0                       # Number of cycles IEW is idle
system.switch_cpus.iew.iewLSQFullEvents      18341347                       # Number of times the LSQ has become full, causing a stall
system.switch_cpus.iew.iewSquashCycles       19053487                       # Number of cycles IEW is squashing
system.switch_cpus.iew.iewUnblockCycles      18847637                       # Number of cycles IEW is unblocking
system.switch_cpus.iew.memOrderViolationEvents       301442                       # Number of memory order violations
system.switch_cpus.iew.predictedNotTakenIncorrect     11309502                       # Number of branches that were predicted not taken incorrectly
system.switch_cpus.iew.predictedTakenIncorrect      8869013                       # Number of branches that were predicted taken incorrectly
system.switch_cpus.iew.wb_consumers        2380639568                       # num instructions consuming a value
system.switch_cpus.iew.wb_count            2370652596                       # cumulative count of insts written-back
system.switch_cpus.iew.wb_fanout             0.634861                       # average fanout of values written-back
system.switch_cpus.iew.wb_producers        1511376304                       # num instructions producing a value
system.switch_cpus.iew.wb_rate               2.302366                       # insts written-back per cycle
system.switch_cpus.iew.wb_sent             2377588171                       # cumulative count of insts sent to commit
system.switch_cpus.int_regfile_reads       2991527239                       # number of integer regfile reads
system.switch_cpus.int_regfile_writes      1917830036                       # number of integer regfile writes
system.switch_cpus.ipc                       1.942390                       # IPC: Instructions Per Cycle
system.switch_cpus.ipc_total                 1.942390                       # IPC: Total IPC of All Threads
system.switch_cpus.iq.FU_type_0::No_OpClass          874      0.00%      0.00% # Type of FU issued
system.switch_cpus.iq.FU_type_0::IntAlu    1627640550     66.90%     66.90% # Type of FU issued
system.switch_cpus.iq.FU_type_0::IntMult     16023142      0.66%     67.56% # Type of FU issued
system.switch_cpus.iq.FU_type_0::IntDiv       1027365      0.04%     67.60% # Type of FU issued
system.switch_cpus.iq.FU_type_0::FloatAdd            0      0.00%     67.60% # Type of FU issued
system.switch_cpus.iq.FU_type_0::FloatCmp            0      0.00%     67.60% # Type of FU issued
system.switch_cpus.iq.FU_type_0::FloatCvt            0      0.00%     67.60% # Type of FU issued
system.switch_cpus.iq.FU_type_0::FloatMult            0      0.00%     67.60% # Type of FU issued
system.switch_cpus.iq.FU_type_0::FloatMultAcc            0      0.00%     67.60% # Type of FU issued
system.switch_cpus.iq.FU_type_0::FloatDiv            0      0.00%     67.60% # Type of FU issued
system.switch_cpus.iq.FU_type_0::FloatMisc     16195737      0.67%     68.27% # Type of FU issued
system.switch_cpus.iq.FU_type_0::FloatSqrt            0      0.00%     68.27% # Type of FU issued
system.switch_cpus.iq.FU_type_0::SimdAdd      8527457      0.35%     68.62% # Type of FU issued
system.switch_cpus.iq.FU_type_0::SimdAddAcc            0      0.00%     68.62% # Type of FU issued
system.switch_cpus.iq.FU_type_0::SimdAlu      7677684      0.32%     68.94% # Type of FU issued
system.switch_cpus.iq.FU_type_0::SimdCmp         2028      0.00%     68.94% # Type of FU issued
system.switch_cpus.iq.FU_type_0::SimdCvt            0      0.00%     68.94% # Type of FU issued
system.switch_cpus.iq.FU_type_0::SimdMisc      1051021      0.04%     68.98% # Type of FU issued
system.switch_cpus.iq.FU_type_0::SimdMult            0      0.00%     68.98% # Type of FU issued
system.switch_cpus.iq.FU_type_0::SimdMultAcc            0      0.00%     68.98% # Type of FU issued
system.switch_cpus.iq.FU_type_0::SimdShift         2190      0.00%     68.98% # Type of FU issued
system.switch_cpus.iq.FU_type_0::SimdShiftAcc            0      0.00%     68.98% # Type of FU issued
system.switch_cpus.iq.FU_type_0::SimdDiv            0      0.00%     68.98% # Type of FU issued
system.switch_cpus.iq.FU_type_0::SimdSqrt            0      0.00%     68.98% # Type of FU issued
system.switch_cpus.iq.FU_type_0::SimdFloatAdd            0      0.00%     68.98% # Type of FU issued
system.switch_cpus.iq.FU_type_0::SimdFloatAlu            0      0.00%     68.98% # Type of FU issued
system.switch_cpus.iq.FU_type_0::SimdFloatCmp            0      0.00%     68.98% # Type of FU issued
system.switch_cpus.iq.FU_type_0::SimdFloatCvt            0      0.00%     68.98% # Type of FU issued
system.switch_cpus.iq.FU_type_0::SimdFloatDiv            0      0.00%     68.98% # Type of FU issued
system.switch_cpus.iq.FU_type_0::SimdFloatMisc            0      0.00%     68.98% # Type of FU issued
system.switch_cpus.iq.FU_type_0::SimdFloatMult            0      0.00%     68.98% # Type of FU issued
system.switch_cpus.iq.FU_type_0::SimdFloatMultAcc            0      0.00%     68.98% # Type of FU issued
system.switch_cpus.iq.FU_type_0::SimdFloatSqrt            0      0.00%     68.98% # Type of FU issued
system.switch_cpus.iq.FU_type_0::SimdReduceAdd            0      0.00%     68.98% # Type of FU issued
system.switch_cpus.iq.FU_type_0::SimdReduceAlu            0      0.00%     68.98% # Type of FU issued
system.switch_cpus.iq.FU_type_0::SimdReduceCmp            0      0.00%     68.98% # Type of FU issued
system.switch_cpus.iq.FU_type_0::SimdFloatReduceAdd            0      0.00%     68.98% # Type of FU issued
system.switch_cpus.iq.FU_type_0::SimdFloatReduceCmp            0      0.00%     68.98% # Type of FU issued
system.switch_cpus.iq.FU_type_0::SimdAes            0      0.00%     68.98% # Type of FU issued
system.switch_cpus.iq.FU_type_0::SimdAesMix            0      0.00%     68.98% # Type of FU issued
system.switch_cpus.iq.FU_type_0::SimdSha1Hash            0      0.00%     68.98% # Type of FU issued
system.switch_cpus.iq.FU_type_0::SimdSha1Hash2            0      0.00%     68.98% # Type of FU issued
system.switch_cpus.iq.FU_type_0::SimdSha256Hash            0      0.00%     68.98% # Type of FU issued
system.switch_cpus.iq.FU_type_0::SimdSha256Hash2            0      0.00%     68.98% # Type of FU issued
system.switch_cpus.iq.FU_type_0::SimdShaSigma2            0      0.00%     68.98% # Type of FU issued
system.switch_cpus.iq.FU_type_0::SimdShaSigma3            0      0.00%     68.98% # Type of FU issued
system.switch_cpus.iq.FU_type_0::SimdPredAlu            0      0.00%     68.98% # Type of FU issued
system.switch_cpus.iq.FU_type_0::MemRead    536927940     22.07%     91.05% # Type of FU issued
system.switch_cpus.iq.FU_type_0::MemWrite    217775583      8.95%    100.00% # Type of FU issued
system.switch_cpus.iq.FU_type_0::FloatMemRead            0      0.00%    100.00% # Type of FU issued
system.switch_cpus.iq.FU_type_0::FloatMemWrite            0      0.00%    100.00% # Type of FU issued
system.switch_cpus.iq.FU_type_0::IprAccess            0      0.00%    100.00% # Type of FU issued
system.switch_cpus.iq.FU_type_0::InstPrefetch            0      0.00%    100.00% # Type of FU issued
system.switch_cpus.iq.FU_type_0::total     2432851571                       # Type of FU issued
system.switch_cpus.iq.fp_alu_accesses               0                       # Number of floating point alu accesses
system.switch_cpus.iq.fp_inst_queue_reads            0                       # Number of floating instruction queue reads
system.switch_cpus.iq.fp_inst_queue_wakeup_accesses            0                       # Number of floating instruction queue wakeup accesses
system.switch_cpus.iq.fp_inst_queue_writes            0                       # Number of floating instruction queue writes
system.switch_cpus.iq.fu_busy_cnt            30727987                       # FU busy when requested
system.switch_cpus.iq.fu_busy_rate           0.012630                       # FU busy rate (busy events/executed inst)
system.switch_cpus.iq.fu_full::No_OpClass            0      0.00%      0.00% # attempts to use FU when none available
system.switch_cpus.iq.fu_full::IntAlu         7959205     25.90%     25.90% # attempts to use FU when none available
system.switch_cpus.iq.fu_full::IntMult            118      0.00%     25.90% # attempts to use FU when none available
system.switch_cpus.iq.fu_full::IntDiv               0      0.00%     25.90% # attempts to use FU when none available
system.switch_cpus.iq.fu_full::FloatAdd             0      0.00%     25.90% # attempts to use FU when none available
system.switch_cpus.iq.fu_full::FloatCmp             0      0.00%     25.90% # attempts to use FU when none available
system.switch_cpus.iq.fu_full::FloatCvt             0      0.00%     25.90% # attempts to use FU when none available
system.switch_cpus.iq.fu_full::FloatMult            0      0.00%     25.90% # attempts to use FU when none available
system.switch_cpus.iq.fu_full::FloatMultAcc            0      0.00%     25.90% # attempts to use FU when none available
system.switch_cpus.iq.fu_full::FloatDiv             0      0.00%     25.90% # attempts to use FU when none available
system.switch_cpus.iq.fu_full::FloatMisc         3950      0.01%     25.92% # attempts to use FU when none available
system.switch_cpus.iq.fu_full::FloatSqrt            0      0.00%     25.92% # attempts to use FU when none available
system.switch_cpus.iq.fu_full::SimdAdd             37      0.00%     25.92% # attempts to use FU when none available
system.switch_cpus.iq.fu_full::SimdAddAcc            0      0.00%     25.92% # attempts to use FU when none available
system.switch_cpus.iq.fu_full::SimdAlu             16      0.00%     25.92% # attempts to use FU when none available
system.switch_cpus.iq.fu_full::SimdCmp              0      0.00%     25.92% # attempts to use FU when none available
system.switch_cpus.iq.fu_full::SimdCvt              0      0.00%     25.92% # attempts to use FU when none available
system.switch_cpus.iq.fu_full::SimdMisc            43      0.00%     25.92% # attempts to use FU when none available
system.switch_cpus.iq.fu_full::SimdMult             0      0.00%     25.92% # attempts to use FU when none available
system.switch_cpus.iq.fu_full::SimdMultAcc            0      0.00%     25.92% # attempts to use FU when none available
system.switch_cpus.iq.fu_full::SimdShift            0      0.00%     25.92% # attempts to use FU when none available
system.switch_cpus.iq.fu_full::SimdShiftAcc            0      0.00%     25.92% # attempts to use FU when none available
system.switch_cpus.iq.fu_full::SimdDiv              0      0.00%     25.92% # attempts to use FU when none available
system.switch_cpus.iq.fu_full::SimdSqrt             0      0.00%     25.92% # attempts to use FU when none available
system.switch_cpus.iq.fu_full::SimdFloatAdd            0      0.00%     25.92% # attempts to use FU when none available
system.switch_cpus.iq.fu_full::SimdFloatAlu            0      0.00%     25.92% # attempts to use FU when none available
system.switch_cpus.iq.fu_full::SimdFloatCmp            0      0.00%     25.92% # attempts to use FU when none available
system.switch_cpus.iq.fu_full::SimdFloatCvt            0      0.00%     25.92% # attempts to use FU when none available
system.switch_cpus.iq.fu_full::SimdFloatDiv            0      0.00%     25.92% # attempts to use FU when none available
system.switch_cpus.iq.fu_full::SimdFloatMisc            0      0.00%     25.92% # attempts to use FU when none available
system.switch_cpus.iq.fu_full::SimdFloatMult            0      0.00%     25.92% # attempts to use FU when none available
system.switch_cpus.iq.fu_full::SimdFloatMultAcc            0      0.00%     25.92% # attempts to use FU when none available
system.switch_cpus.iq.fu_full::SimdFloatSqrt            0      0.00%     25.92% # attempts to use FU when none available
system.switch_cpus.iq.fu_full::SimdReduceAdd            0      0.00%     25.92% # attempts to use FU when none available
system.switch_cpus.iq.fu_full::SimdReduceAlu            0      0.00%     25.92% # attempts to use FU when none available
system.switch_cpus.iq.fu_full::SimdReduceCmp            0      0.00%     25.92% # attempts to use FU when none available
system.switch_cpus.iq.fu_full::SimdFloatReduceAdd            0      0.00%     25.92% # attempts to use FU when none available
system.switch_cpus.iq.fu_full::SimdFloatReduceCmp            0      0.00%     25.92% # attempts to use FU when none available
system.switch_cpus.iq.fu_full::SimdAes              0      0.00%     25.92% # attempts to use FU when none available
system.switch_cpus.iq.fu_full::SimdAesMix            0      0.00%     25.92% # attempts to use FU when none available
system.switch_cpus.iq.fu_full::SimdSha1Hash            0      0.00%     25.92% # attempts to use FU when none available
system.switch_cpus.iq.fu_full::SimdSha1Hash2            0      0.00%     25.92% # attempts to use FU when none available
system.switch_cpus.iq.fu_full::SimdSha256Hash            0      0.00%     25.92% # attempts to use FU when none available
system.switch_cpus.iq.fu_full::SimdSha256Hash2            0      0.00%     25.92% # attempts to use FU when none available
system.switch_cpus.iq.fu_full::SimdShaSigma2            0      0.00%     25.92% # attempts to use FU when none available
system.switch_cpus.iq.fu_full::SimdShaSigma3            0      0.00%     25.92% # attempts to use FU when none available
system.switch_cpus.iq.fu_full::SimdPredAlu            0      0.00%     25.92% # attempts to use FU when none available
system.switch_cpus.iq.fu_full::MemRead       15188888     49.43%     75.35% # attempts to use FU when none available
system.switch_cpus.iq.fu_full::MemWrite       7575730     24.65%    100.00% # attempts to use FU when none available
system.switch_cpus.iq.fu_full::FloatMemRead            0      0.00%    100.00% # attempts to use FU when none available
system.switch_cpus.iq.fu_full::FloatMemWrite            0      0.00%    100.00% # attempts to use FU when none available
system.switch_cpus.iq.fu_full::IprAccess            0      0.00%    100.00% # attempts to use FU when none available
system.switch_cpus.iq.fu_full::InstPrefetch            0      0.00%    100.00% # attempts to use FU when none available
system.switch_cpus.iq.int_alu_accesses     2419773368                       # Number of integer alu accesses
system.switch_cpus.iq.int_inst_queue_reads   5835123399                       # Number of integer instruction queue reads
system.switch_cpus.iq.int_inst_queue_wakeup_accesses   2327193809                       # Number of integer instruction queue wakeup accesses
system.switch_cpus.iq.int_inst_queue_writes   2950917683                       # Number of integer instruction queue writes
system.switch_cpus.iq.iqInstsAdded         2572799643                       # Number of instructions added to the IQ (excludes non-spec)
system.switch_cpus.iq.iqInstsIssued        2432851571                       # Number of instructions issued
system.switch_cpus.iq.iqNonSpecInstsAdded            6                       # Number of non-speculative instructions added to the IQ
system.switch_cpus.iq.iqSquashedInstsExamined    424016645                       # Number of squashed instructions iterated over during squash; mainly for profiling
system.switch_cpus.iq.iqSquashedInstsIssued      1344855                       # Number of squashed instructions issued
system.switch_cpus.iq.iqSquashedOperandsExamined    328008745                       # Number of squashed operands that are examined and possibly removed from graph
system.switch_cpus.iq.issued_per_cycle::samples   1024705516                       # Number of insts issued each cycle
system.switch_cpus.iq.issued_per_cycle::mean     2.374196                       # Number of insts issued each cycle
system.switch_cpus.iq.issued_per_cycle::stdev     2.119604                       # Number of insts issued each cycle
system.switch_cpus.iq.issued_per_cycle::underflows            0      0.00%      0.00% # Number of insts issued each cycle
system.switch_cpus.iq.issued_per_cycle::0    272108372     26.55%     26.55% # Number of insts issued each cycle
system.switch_cpus.iq.issued_per_cycle::1    145783122     14.23%     40.78% # Number of insts issued each cycle
system.switch_cpus.iq.issued_per_cycle::2    172493485     16.83%     57.62% # Number of insts issued each cycle
system.switch_cpus.iq.issued_per_cycle::3    136814216     13.35%     70.97% # Number of insts issued each cycle
system.switch_cpus.iq.issued_per_cycle::4    117116472     11.43%     82.40% # Number of insts issued each cycle
system.switch_cpus.iq.issued_per_cycle::5     80149253      7.82%     90.22% # Number of insts issued each cycle
system.switch_cpus.iq.issued_per_cycle::6     56087153      5.47%     95.69% # Number of insts issued each cycle
system.switch_cpus.iq.issued_per_cycle::7     27323784      2.67%     98.36% # Number of insts issued each cycle
system.switch_cpus.iq.issued_per_cycle::8     16829659      1.64%    100.00% # Number of insts issued each cycle
system.switch_cpus.iq.issued_per_cycle::overflows            0      0.00%    100.00% # Number of insts issued each cycle
system.switch_cpus.iq.issued_per_cycle::min_value            0                       # Number of insts issued each cycle
system.switch_cpus.iq.issued_per_cycle::max_value            8                       # Number of insts issued each cycle
system.switch_cpus.iq.issued_per_cycle::total   1024705516                       # Number of insts issued each cycle
system.switch_cpus.iq.rate                   2.362774                       # Inst issue rate
system.switch_cpus.iq.vec_alu_accesses       43805316                       # Number of vector alu accesses
system.switch_cpus.iq.vec_inst_queue_reads     87358098                       # Number of vector instruction queue reads
system.switch_cpus.iq.vec_inst_queue_wakeup_accesses     43458787                       # Number of vector instruction queue wakeup accesses
system.switch_cpus.iq.vec_inst_queue_writes     46193285                       # Number of vector instruction queue writes
system.switch_cpus.memDep0.conflictingLoads     33018006                       # Number of conflicting loads.
system.switch_cpus.memDep0.conflictingStores     29052206                       # Number of conflicting stores.
system.switch_cpus.memDep0.insertedLoads    551516871                       # Number of loads inserted to the mem dependence unit.
system.switch_cpus.memDep0.insertedStores    234549403                       # Number of stores inserted to the mem dependence unit.
system.switch_cpus.misc_regfile_reads      5552981799                       # number of misc regfile reads
system.switch_cpus.misc_regfile_writes              1                       # number of misc regfile writes
system.switch_cpus.numCycles               1029659203                       # number of cpu cycles simulated
system.switch_cpus.numWorkItemsCompleted            0                       # number of work items this cpu completed
system.switch_cpus.numWorkItemsStarted              0                       # number of work items this cpu started
system.switch_cpus.pred_regfile_reads             810                       # number of predicate regfile reads
system.switch_cpus.pred_regfile_writes            270                       # number of predicate regfile writes
system.switch_cpus.timesIdled                  668212                       # Number of times that the entire CPU went into an idle state and unscheduled itself
system.switch_cpus.vec_regfile_reads         32969919                       # number of vector regfile reads
system.switch_cpus.vec_regfile_writes        28073353                       # number of vector regfile writes
system.tol2bus.snoop_filter.hit_multi_requests            2                       # Number of requests hitting in the snoop filter with multiple (>1) holders of the requested data.
system.tol2bus.snoop_filter.hit_multi_snoops            0                       # Number of snoops hitting in the snoop filter with multiple (>1) holders of the requested data.
system.tol2bus.snoop_filter.hit_single_requests      5792104                       # Number of requests hitting in the snoop filter with a single holder of the requested data.
system.tol2bus.snoop_filter.hit_single_snoops       780325                       # Number of snoops hitting in the snoop filter with a single holder of the requested data.
system.tol2bus.snoop_filter.tot_requests     11092581                       # Total number of requests made to the snoop filter.
system.tol2bus.snoop_filter.tot_snoops         780325                       # Total number of snoops made to the snoop filter.
system.clk_domain.clock                          1000                       # Clock period in ticks
system.cpu.dcache.demand_hits::.switch_cpus.data    683219555                       # number of demand (read+write) hits
system.cpu.dcache.demand_hits::total        683219555                       # number of demand (read+write) hits
system.cpu.dcache.overall_hits::.switch_cpus.data    683219555                       # number of overall hits
system.cpu.dcache.overall_hits::total       683219555                       # number of overall hits
system.cpu.dcache.demand_misses::.cpu.data            5                       # number of demand (read+write) misses
system.cpu.dcache.demand_misses::.switch_cpus.data     13020542                       # number of demand (read+write) misses
system.cpu.dcache.demand_misses::total       13020547                       # number of demand (read+write) misses
system.cpu.dcache.overall_misses::.cpu.data            5                       # number of overall misses
system.cpu.dcache.overall_misses::.switch_cpus.data     13020542                       # number of overall misses
system.cpu.dcache.overall_misses::total      13020547                       # number of overall misses
system.cpu.dcache.demand_miss_latency::.switch_cpus.data 422190176399                       # number of demand (read+write) miss cycles
system.cpu.dcache.demand_miss_latency::total 422190176399                       # number of demand (read+write) miss cycles
system.cpu.dcache.overall_miss_latency::.switch_cpus.data 422190176399                       # number of overall miss cycles
system.cpu.dcache.overall_miss_latency::total 422190176399                       # number of overall miss cycles
system.cpu.dcache.demand_accesses::.cpu.data            5                       # number of demand (read+write) accesses
system.cpu.dcache.demand_accesses::.switch_cpus.data    696240097                       # number of demand (read+write) accesses
system.cpu.dcache.demand_accesses::total    696240102                       # number of demand (read+write) accesses
system.cpu.dcache.overall_accesses::.cpu.data            5                       # number of overall (read+write) accesses
system.cpu.dcache.overall_accesses::.switch_cpus.data    696240097                       # number of overall (read+write) accesses
system.cpu.dcache.overall_accesses::total    696240102                       # number of overall (read+write) accesses
system.cpu.dcache.demand_miss_rate::.cpu.data            1                       # miss rate for demand accesses
system.cpu.dcache.demand_miss_rate::.switch_cpus.data     0.018701                       # miss rate for demand accesses
system.cpu.dcache.demand_miss_rate::total     0.018701                       # miss rate for demand accesses
system.cpu.dcache.overall_miss_rate::.cpu.data            1                       # miss rate for overall accesses
system.cpu.dcache.overall_miss_rate::.switch_cpus.data     0.018701                       # miss rate for overall accesses
system.cpu.dcache.overall_miss_rate::total     0.018701                       # miss rate for overall accesses
system.cpu.dcache.demand_avg_miss_latency::.switch_cpus.data 32424.931036                       # average overall miss latency
system.cpu.dcache.demand_avg_miss_latency::total 32424.918584                       # average overall miss latency
system.cpu.dcache.overall_avg_miss_latency::.switch_cpus.data 32424.931036                       # average overall miss latency
system.cpu.dcache.overall_avg_miss_latency::total 32424.918584                       # average overall miss latency
system.cpu.dcache.blocked_cycles::no_mshrs      1321876                       # number of cycles access was blocked
system.cpu.dcache.blocked_cycles::no_targets          659                       # number of cycles access was blocked
system.cpu.dcache.blocked::no_mshrs             94852                       # number of cycles access was blocked
system.cpu.dcache.blocked::no_targets              22                       # number of cycles access was blocked
system.cpu.dcache.avg_blocked_cycles::no_mshrs    13.936195                       # average number of cycles each access was blocked
system.cpu.dcache.avg_blocked_cycles::no_targets    29.954545                       # average number of cycles each access was blocked
system.cpu.dcache.ghost_timestamp_misses          110                       # number of times timestamp policy causes a block to be inaccessible
system.cpu.dcache.ghost_commits               2116584                       # number of cache lines moved from ghost to main
system.cpu.dcache.same_leapfrogs                 6089                       # number of times leapfrogging occurs with a shared MSHR request
system.cpu.dcache.writebacks::.writebacks      5337717                       # number of writebacks
system.cpu.dcache.writebacks::total           5337717                       # number of writebacks
system.cpu.dcache.demand_mshr_hits::.switch_cpus.data      8762932                       # number of demand (read+write) MSHR hits
system.cpu.dcache.demand_mshr_hits::total      8762932                       # number of demand (read+write) MSHR hits
system.cpu.dcache.overall_mshr_hits::.switch_cpus.data      8762932                       # number of overall MSHR hits
system.cpu.dcache.overall_mshr_hits::total      8762932                       # number of overall MSHR hits
system.cpu.dcache.demand_mshr_misses::.switch_cpus.data      4257610                       # number of demand (read+write) MSHR misses
system.cpu.dcache.demand_mshr_misses::total      4257610                       # number of demand (read+write) MSHR misses
system.cpu.dcache.overall_mshr_misses::.switch_cpus.data      4257610                       # number of overall MSHR misses
system.cpu.dcache.overall_mshr_misses::total      4257610                       # number of overall MSHR misses
system.cpu.dcache.demand_mshr_miss_latency::.switch_cpus.data 116742737148                       # number of demand (read+write) MSHR miss cycles
system.cpu.dcache.demand_mshr_miss_latency::total 116742737148                       # number of demand (read+write) MSHR miss cycles
system.cpu.dcache.overall_mshr_miss_latency::.switch_cpus.data 116742737148                       # number of overall MSHR miss cycles
system.cpu.dcache.overall_mshr_miss_latency::total 116742737148                       # number of overall MSHR miss cycles
system.cpu.dcache.demand_mshr_miss_rate::.switch_cpus.data     0.006115                       # mshr miss rate for demand accesses
system.cpu.dcache.demand_mshr_miss_rate::total     0.006115                       # mshr miss rate for demand accesses
system.cpu.dcache.overall_mshr_miss_rate::.switch_cpus.data     0.006115                       # mshr miss rate for overall accesses
system.cpu.dcache.overall_mshr_miss_rate::total     0.006115                       # mshr miss rate for overall accesses
system.cpu.dcache.demand_avg_mshr_miss_latency::.switch_cpus.data 27419.781790                       # average overall mshr miss latency
system.cpu.dcache.demand_avg_mshr_miss_latency::total 27419.781790                       # average overall mshr miss latency
system.cpu.dcache.overall_avg_mshr_miss_latency::.switch_cpus.data 27419.781790                       # average overall mshr miss latency
system.cpu.dcache.overall_avg_mshr_miss_latency::total 27419.781790                       # average overall mshr miss latency
system.cpu.dcache.replacements                3221263                       # number of replacements
system.cpu.dcache.ReadReq_hits::.switch_cpus.data    487901837                       # number of ReadReq hits
system.cpu.dcache.ReadReq_hits::total       487901837                       # number of ReadReq hits
system.cpu.dcache.ReadReq_misses::.cpu.data            5                       # number of ReadReq misses
system.cpu.dcache.ReadReq_misses::.switch_cpus.data      6652573                       # number of ReadReq misses
system.cpu.dcache.ReadReq_misses::total       6652578                       # number of ReadReq misses
system.cpu.dcache.ReadReq_miss_latency::.switch_cpus.data 297292267500                       # number of ReadReq miss cycles
system.cpu.dcache.ReadReq_miss_latency::total 297292267500                       # number of ReadReq miss cycles
system.cpu.dcache.ReadReq_accesses::.cpu.data            5                       # number of ReadReq accesses(hits+misses)
system.cpu.dcache.ReadReq_accesses::.switch_cpus.data    494554410                       # number of ReadReq accesses(hits+misses)
system.cpu.dcache.ReadReq_accesses::total    494554415                       # number of ReadReq accesses(hits+misses)
system.cpu.dcache.ReadReq_miss_rate::.cpu.data            1                       # miss rate for ReadReq accesses
system.cpu.dcache.ReadReq_miss_rate::.switch_cpus.data     0.013452                       # miss rate for ReadReq accesses
system.cpu.dcache.ReadReq_miss_rate::total     0.013452                       # miss rate for ReadReq accesses
system.cpu.dcache.ReadReq_avg_miss_latency::.switch_cpus.data 44688.313454                       # average ReadReq miss latency
system.cpu.dcache.ReadReq_avg_miss_latency::total 44688.279867                       # average ReadReq miss latency
system.cpu.dcache.ReadReq_mshr_hits::.switch_cpus.data      3987252                       # number of ReadReq MSHR hits
system.cpu.dcache.ReadReq_mshr_hits::total      3987252                       # number of ReadReq MSHR hits
system.cpu.dcache.ReadReq_mshr_misses::.switch_cpus.data      2665321                       # number of ReadReq MSHR misses
system.cpu.dcache.ReadReq_mshr_misses::total      2665321                       # number of ReadReq MSHR misses
system.cpu.dcache.ReadReq_mshr_miss_latency::.switch_cpus.data  87284061000                       # number of ReadReq MSHR miss cycles
system.cpu.dcache.ReadReq_mshr_miss_latency::total  87284061000                       # number of ReadReq MSHR miss cycles
system.cpu.dcache.ReadReq_mshr_miss_rate::.switch_cpus.data     0.005389                       # mshr miss rate for ReadReq accesses
system.cpu.dcache.ReadReq_mshr_miss_rate::total     0.005389                       # mshr miss rate for ReadReq accesses
system.cpu.dcache.ReadReq_avg_mshr_miss_latency::.switch_cpus.data 32748.048359                       # average ReadReq mshr miss latency
system.cpu.dcache.ReadReq_avg_mshr_miss_latency::total 32748.048359                       # average ReadReq mshr miss latency
system.cpu.dcache.WriteReq_hits::.switch_cpus.data    195317714                       # number of WriteReq hits
system.cpu.dcache.WriteReq_hits::total      195317714                       # number of WriteReq hits
system.cpu.dcache.WriteReq_misses::.switch_cpus.data      6367963                       # number of WriteReq misses
system.cpu.dcache.WriteReq_misses::total      6367963                       # number of WriteReq misses
system.cpu.dcache.WriteReq_miss_latency::.switch_cpus.data 124897743899                       # number of WriteReq miss cycles
system.cpu.dcache.WriteReq_miss_latency::total 124897743899                       # number of WriteReq miss cycles
system.cpu.dcache.WriteReq_accesses::.switch_cpus.data    201685677                       # number of WriteReq accesses(hits+misses)
system.cpu.dcache.WriteReq_accesses::total    201685677                       # number of WriteReq accesses(hits+misses)
system.cpu.dcache.WriteReq_miss_rate::.switch_cpus.data     0.031574                       # miss rate for WriteReq accesses
system.cpu.dcache.WriteReq_miss_rate::total     0.031574                       # miss rate for WriteReq accesses
system.cpu.dcache.WriteReq_avg_miss_latency::.switch_cpus.data 19613.453140                       # average WriteReq miss latency
system.cpu.dcache.WriteReq_avg_miss_latency::total 19613.453140                       # average WriteReq miss latency
system.cpu.dcache.WriteReq_mshr_hits::.switch_cpus.data      4775680                       # number of WriteReq MSHR hits
system.cpu.dcache.WriteReq_mshr_hits::total      4775680                       # number of WriteReq MSHR hits
system.cpu.dcache.WriteReq_mshr_misses::.switch_cpus.data      1592283                       # number of WriteReq MSHR misses
system.cpu.dcache.WriteReq_mshr_misses::total      1592283                       # number of WriteReq MSHR misses
system.cpu.dcache.WriteReq_mshr_miss_latency::.switch_cpus.data  29458517148                       # number of WriteReq MSHR miss cycles
system.cpu.dcache.WriteReq_mshr_miss_latency::total  29458517148                       # number of WriteReq MSHR miss cycles
system.cpu.dcache.WriteReq_mshr_miss_rate::.switch_cpus.data     0.007895                       # mshr miss rate for WriteReq accesses
system.cpu.dcache.WriteReq_mshr_miss_rate::total     0.007895                       # mshr miss rate for WriteReq accesses
system.cpu.dcache.WriteReq_avg_mshr_miss_latency::.switch_cpus.data 18500.804912                       # average WriteReq mshr miss latency
system.cpu.dcache.WriteReq_avg_mshr_miss_latency::total 18500.804912                       # average WriteReq mshr miss latency
system.cpu.dcache.WriteLineReq_hits::.switch_cpus.data            4                       # number of WriteLineReq hits
system.cpu.dcache.WriteLineReq_hits::total            4                       # number of WriteLineReq hits
system.cpu.dcache.WriteLineReq_misses::.switch_cpus.data            6                       # number of WriteLineReq misses
system.cpu.dcache.WriteLineReq_misses::total            6                       # number of WriteLineReq misses
system.cpu.dcache.WriteLineReq_miss_latency::.switch_cpus.data       165000                       # number of WriteLineReq miss cycles
system.cpu.dcache.WriteLineReq_miss_latency::total       165000                       # number of WriteLineReq miss cycles
system.cpu.dcache.WriteLineReq_accesses::.switch_cpus.data           10                       # number of WriteLineReq accesses(hits+misses)
system.cpu.dcache.WriteLineReq_accesses::total           10                       # number of WriteLineReq accesses(hits+misses)
system.cpu.dcache.WriteLineReq_miss_rate::.switch_cpus.data     0.600000                       # miss rate for WriteLineReq accesses
system.cpu.dcache.WriteLineReq_miss_rate::total     0.600000                       # miss rate for WriteLineReq accesses
system.cpu.dcache.WriteLineReq_avg_miss_latency::.switch_cpus.data        27500                       # average WriteLineReq miss latency
system.cpu.dcache.WriteLineReq_avg_miss_latency::total        27500                       # average WriteLineReq miss latency
system.cpu.dcache.WriteLineReq_mshr_misses::.switch_cpus.data            6                       # number of WriteLineReq MSHR misses
system.cpu.dcache.WriteLineReq_mshr_misses::total            6                       # number of WriteLineReq MSHR misses
system.cpu.dcache.WriteLineReq_mshr_miss_latency::.switch_cpus.data       159000                       # number of WriteLineReq MSHR miss cycles
system.cpu.dcache.WriteLineReq_mshr_miss_latency::total       159000                       # number of WriteLineReq MSHR miss cycles
system.cpu.dcache.WriteLineReq_mshr_miss_rate::.switch_cpus.data     0.600000                       # mshr miss rate for WriteLineReq accesses
system.cpu.dcache.WriteLineReq_mshr_miss_rate::total     0.600000                       # mshr miss rate for WriteLineReq accesses
system.cpu.dcache.WriteLineReq_avg_mshr_miss_latency::.switch_cpus.data        26500                       # average WriteLineReq mshr miss latency
system.cpu.dcache.WriteLineReq_avg_mshr_miss_latency::total        26500                       # average WriteLineReq mshr miss latency
system.cpu.dcache.ghosttags.tagsinuse    -1623536.360372                       # Cycle average of tags in use
system.cpu.dcache.ghosttags.total_refs              0                       # Total number of references to valid blocks.
system.cpu.dcache.ghosttags.sampled_refs            0                       # Sample count of references to valid blocks.
system.cpu.dcache.ghosttags.avg_refs              nan                       # Average number of references to valid blocks.
system.cpu.dcache.ghosttags.warmup_cycle 5336283281500                       # Cycle when the warmup percentage was hit.
system.cpu.dcache.ghosttags.occ_blocks::.switch_cpus.data 1331817.248673                       # Average occupied blocks per requestor
system.cpu.dcache.ghosttags.occ_percent::.switch_cpus.data 41619.289021                       # Average percentage of cache occupancy
system.cpu.dcache.ghosttags.occ_percent::total 41619.289021                       # Average percentage of cache occupancy
system.cpu.dcache.ghosttags.tag_accesses     24202179                       # Number of tag accesses
system.cpu.dcache.ghosttags.data_accesses     24202179                       # Number of data accesses
system.cpu.dcache.ghosttags.repl_invalid            0                       # Number of initial replacements
system.cpu.dcache.ghosttags.repl_valid_tag            0                       # Number of local replacements
system.cpu.dcache.ghosttags.repl_valid_data            0                       # Number of global replacements
system.cpu.dcache.ghosttags.power_state.pwrStateResidencyTicks::UNDEFINED 5851112166500                       # Cumulative time (in ticks) in various power states
system.cpu.dcache.power_state.pwrStateResidencyTicks::UNDEFINED 5851112166500                       # Cumulative time (in ticks) in various power states
system.cpu.dcache.tags.tagsinuse         -1331255.558833                       # Cycle average of tags in use
system.cpu.dcache.tags.total_refs           691543746                       # Total number of references to valid blocks.
system.cpu.dcache.tags.sampled_refs           5883360                       # Sample count of references to valid blocks.
system.cpu.dcache.tags.avg_refs            117.542314                       # Average number of references to valid blocks.
system.cpu.dcache.tags.warmup_cycle      5336283091500                       # Cycle when the warmup percentage was hit.
system.cpu.dcache.tags.occ_blocks::.cpu.data     0.008242                       # Average occupied blocks per requestor
system.cpu.dcache.tags.occ_blocks::.switch_cpus.data -1331255.567075                       # Average occupied blocks per requestor
system.cpu.dcache.tags.occ_percent::.cpu.data     0.000016                       # Average percentage of cache occupancy
system.cpu.dcache.tags.occ_percent::.switch_cpus.data -2600.108529                       # Average percentage of cache occupancy
system.cpu.dcache.tags.occ_percent::total -2600.108513                       # Average percentage of cache occupancy
system.cpu.dcache.tags.occ_task_id_blocks::1024          512                       # Occupied blocks per task id
system.cpu.dcache.tags.age_task_id_blocks_1024::0           92                       # Occupied blocks per task id
system.cpu.dcache.tags.age_task_id_blocks_1024::1          229                       # Occupied blocks per task id
system.cpu.dcache.tags.age_task_id_blocks_1024::2          113                       # Occupied blocks per task id
system.cpu.dcache.tags.age_task_id_blocks_1024::3           33                       # Occupied blocks per task id
system.cpu.dcache.tags.age_task_id_blocks_1024::4           45                       # Occupied blocks per task id
system.cpu.dcache.tags.occ_task_id_percent::1024            1                       # Percentage of cache occupancy per task id
system.cpu.dcache.tags.tag_accesses        5573142461                       # Number of tag accesses
system.cpu.dcache.tags.data_accesses       5573142461                       # Number of data accesses
system.cpu.dcache.tags.repl_invalid                 0                       # Number of initial replacements
system.cpu.dcache.tags.repl_valid_tag               0                       # Number of local replacements
system.cpu.dcache.tags.repl_valid_data              0                       # Number of global replacements
system.cpu.dcache.tags.power_state.pwrStateResidencyTicks::UNDEFINED 5851112166500                       # Cumulative time (in ticks) in various power states
system.cpu.dtb.instHits                             0                       # ITB inst hits
system.cpu.dtb.instMisses                           0                       # ITB inst misses
system.cpu.dtb.readHits                             0                       # DTB read hits
system.cpu.dtb.readMisses                           0                       # DTB read misses
system.cpu.dtb.writeHits                            0                       # DTB write hits
system.cpu.dtb.writeMisses                          0                       # DTB write misses
system.cpu.dtb.inserts                              0                       # Number of times an entry is inserted into the TLB
system.cpu.dtb.flushTlb                             2                       # Number of times complete TLB was flushed
system.cpu.dtb.flushTlbMva                          0                       # Number of times TLB was flushed by MVA
system.cpu.dtb.flushTlbMvaAsid                      0                       # Number of times TLB was flushed by MVA & ASID
system.cpu.dtb.flushTlbAsid                         0                       # Number of times TLB was flushed by ASID
system.cpu.dtb.flushedEntries                       0                       # Number of entries that have been flushed from TLB
system.cpu.dtb.alignFaults                          0                       # Number of TLB faults due to alignment restrictions
system.cpu.dtb.prefetchFaults                       0                       # Number of TLB faults due to prefetch
system.cpu.dtb.domainFaults                         0                       # Number of TLB faults due to domain restrictions
system.cpu.dtb.permsFaults                          0                       # Number of TLB faults due to permissions restrictions
system.cpu.dtb.readAccesses                         0                       # DTB read accesses
system.cpu.dtb.writeAccesses                        0                       # DTB write accesses
system.cpu.dtb.instAccesses                         0                       # ITB inst accesses
system.cpu.dtb.hits                                 0                       # Total TLB (inst and data) hits
system.cpu.dtb.misses                               0                       # Total TLB (inst and data) misses
system.cpu.dtb.accesses                             0                       # Total TLB (inst and data) accesses
system.cpu.dtb.stage2_mmu.stage2_tlb.instHits            0                       # ITB inst hits
system.cpu.dtb.stage2_mmu.stage2_tlb.instMisses            0                       # ITB inst misses
system.cpu.dtb.stage2_mmu.stage2_tlb.readHits            0                       # DTB read hits
system.cpu.dtb.stage2_mmu.stage2_tlb.readMisses            0                       # DTB read misses
system.cpu.dtb.stage2_mmu.stage2_tlb.writeHits            0                       # DTB write hits
system.cpu.dtb.stage2_mmu.stage2_tlb.writeMisses            0                       # DTB write misses
system.cpu.dtb.stage2_mmu.stage2_tlb.inserts            0                       # Number of times an entry is inserted into the TLB
system.cpu.dtb.stage2_mmu.stage2_tlb.flushTlb            0                       # Number of times complete TLB was flushed
system.cpu.dtb.stage2_mmu.stage2_tlb.flushTlbMva            0                       # Number of times TLB was flushed by MVA
system.cpu.dtb.stage2_mmu.stage2_tlb.flushTlbMvaAsid            0                       # Number of times TLB was flushed by MVA & ASID
system.cpu.dtb.stage2_mmu.stage2_tlb.flushTlbAsid            0                       # Number of times TLB was flushed by ASID
system.cpu.dtb.stage2_mmu.stage2_tlb.flushedEntries            0                       # Number of entries that have been flushed from TLB
system.cpu.dtb.stage2_mmu.stage2_tlb.alignFaults            0                       # Number of TLB faults due to alignment restrictions
system.cpu.dtb.stage2_mmu.stage2_tlb.prefetchFaults            0                       # Number of TLB faults due to prefetch
system.cpu.dtb.stage2_mmu.stage2_tlb.domainFaults            0                       # Number of TLB faults due to domain restrictions
system.cpu.dtb.stage2_mmu.stage2_tlb.permsFaults            0                       # Number of TLB faults due to permissions restrictions
system.cpu.dtb.stage2_mmu.stage2_tlb.readAccesses            0                       # DTB read accesses
system.cpu.dtb.stage2_mmu.stage2_tlb.writeAccesses            0                       # DTB write accesses
system.cpu.dtb.stage2_mmu.stage2_tlb.instAccesses            0                       # ITB inst accesses
system.cpu.dtb.stage2_mmu.stage2_tlb.hits            0                       # Total TLB (inst and data) hits
system.cpu.dtb.stage2_mmu.stage2_tlb.misses            0                       # Total TLB (inst and data) misses
system.cpu.dtb.stage2_mmu.stage2_tlb.accesses            0                       # Total TLB (inst and data) accesses
system.cpu.dtb.stage2_mmu.stage2_tlb.walker.walks            0                       # Table walker walks requested
system.cpu.dtb.stage2_mmu.stage2_tlb.walker.requestOrigin_Requested::Data            0                       # Table walker requests started/completed, data/inst
system.cpu.dtb.stage2_mmu.stage2_tlb.walker.requestOrigin_Requested::Inst            0                       # Table walker requests started/completed, data/inst
system.cpu.dtb.stage2_mmu.stage2_tlb.walker.requestOrigin_Requested::total            0                       # Table walker requests started/completed, data/inst
system.cpu.dtb.stage2_mmu.stage2_tlb.walker.requestOrigin_Completed::Data            0                       # Table walker requests started/completed, data/inst
system.cpu.dtb.stage2_mmu.stage2_tlb.walker.requestOrigin_Completed::Inst            0                       # Table walker requests started/completed, data/inst
system.cpu.dtb.stage2_mmu.stage2_tlb.walker.requestOrigin_Completed::total            0                       # Table walker requests started/completed, data/inst
system.cpu.dtb.stage2_mmu.stage2_tlb.walker.requestOrigin::total            0                       # Table walker requests started/completed, data/inst
system.cpu.dtb.stage2_mmu.stage2_tlb.walker.power_state.pwrStateResidencyTicks::UNDEFINED 5851112166500                       # Cumulative time (in ticks) in various power states
system.cpu.dtb.walker.walks                         0                       # Table walker walks requested
system.cpu.dtb.walker.requestOrigin_Requested::Data            0                       # Table walker requests started/completed, data/inst
system.cpu.dtb.walker.requestOrigin_Requested::Inst            0                       # Table walker requests started/completed, data/inst
system.cpu.dtb.walker.requestOrigin_Requested::total            0                       # Table walker requests started/completed, data/inst
system.cpu.dtb.walker.requestOrigin_Completed::Data            0                       # Table walker requests started/completed, data/inst
system.cpu.dtb.walker.requestOrigin_Completed::Inst            0                       # Table walker requests started/completed, data/inst
system.cpu.dtb.walker.requestOrigin_Completed::total            0                       # Table walker requests started/completed, data/inst
system.cpu.dtb.walker.requestOrigin::total            0                       # Table walker requests started/completed, data/inst
system.cpu.dtb.walker.power_state.pwrStateResidencyTicks::UNDEFINED 5851112166500                       # Cumulative time (in ticks) in various power states
system.cpu.icache.demand_hits::.cpu.inst           16                       # number of demand (read+write) hits
system.cpu.icache.demand_hits::.switch_cpus.inst    356422559                       # number of demand (read+write) hits
system.cpu.icache.demand_hits::total        356422575                       # number of demand (read+write) hits
system.cpu.icache.overall_hits::.cpu.inst           16                       # number of overall hits
system.cpu.icache.overall_hits::.switch_cpus.inst    356422559                       # number of overall hits
system.cpu.icache.overall_hits::total       356422575                       # number of overall hits
system.cpu.icache.demand_misses::.cpu.inst            4                       # number of demand (read+write) misses
system.cpu.icache.demand_misses::.switch_cpus.inst      1661203                       # number of demand (read+write) misses
system.cpu.icache.demand_misses::total        1661207                       # number of demand (read+write) misses
system.cpu.icache.overall_misses::.cpu.inst            4                       # number of overall misses
system.cpu.icache.overall_misses::.switch_cpus.inst      1661203                       # number of overall misses
system.cpu.icache.overall_misses::total       1661207                       # number of overall misses
system.cpu.icache.demand_miss_latency::.switch_cpus.inst  37553053995                       # number of demand (read+write) miss cycles
system.cpu.icache.demand_miss_latency::total  37553053995                       # number of demand (read+write) miss cycles
system.cpu.icache.overall_miss_latency::.switch_cpus.inst  37553053995                       # number of overall miss cycles
system.cpu.icache.overall_miss_latency::total  37553053995                       # number of overall miss cycles
system.cpu.icache.demand_accesses::.cpu.inst           20                       # number of demand (read+write) accesses
system.cpu.icache.demand_accesses::.switch_cpus.inst    358083762                       # number of demand (read+write) accesses
system.cpu.icache.demand_accesses::total    358083782                       # number of demand (read+write) accesses
system.cpu.icache.overall_accesses::.cpu.inst           20                       # number of overall (read+write) accesses
system.cpu.icache.overall_accesses::.switch_cpus.inst    358083762                       # number of overall (read+write) accesses
system.cpu.icache.overall_accesses::total    358083782                       # number of overall (read+write) accesses
system.cpu.icache.demand_miss_rate::.cpu.inst     0.200000                       # miss rate for demand accesses
system.cpu.icache.demand_miss_rate::.switch_cpus.inst     0.004639                       # miss rate for demand accesses
system.cpu.icache.demand_miss_rate::total     0.004639                       # miss rate for demand accesses
system.cpu.icache.overall_miss_rate::.cpu.inst     0.200000                       # miss rate for overall accesses
system.cpu.icache.overall_miss_rate::.switch_cpus.inst     0.004639                       # miss rate for overall accesses
system.cpu.icache.overall_miss_rate::total     0.004639                       # miss rate for overall accesses
system.cpu.icache.demand_avg_miss_latency::.switch_cpus.inst 22605.939187                       # average overall miss latency
system.cpu.icache.demand_avg_miss_latency::total 22605.884754                       # average overall miss latency
system.cpu.icache.overall_avg_miss_latency::.switch_cpus.inst 22605.939187                       # average overall miss latency
system.cpu.icache.overall_avg_miss_latency::total 22605.884754                       # average overall miss latency
system.cpu.icache.blocked_cycles::no_mshrs         6240                       # number of cycles access was blocked
system.cpu.icache.blocked_cycles::no_targets            0                       # number of cycles access was blocked
system.cpu.icache.blocked::no_mshrs               277                       # number of cycles access was blocked
system.cpu.icache.blocked::no_targets               0                       # number of cycles access was blocked
system.cpu.icache.avg_blocked_cycles::no_mshrs    22.527076                       # average number of cycles each access was blocked
system.cpu.icache.avg_blocked_cycles::no_targets          nan                       # average number of cycles each access was blocked
system.cpu.icache.ghost_timestamp_misses            0                       # number of times timestamp policy causes a block to be inaccessible
system.cpu.icache.ghost_commits                762680                       # number of cache lines moved from ghost to main
system.cpu.icache.same_leapfrogs                    0                       # number of times leapfrogging occurs with a shared MSHR request
system.cpu.icache.writebacks::.writebacks      1524853                       # number of writebacks
system.cpu.icache.writebacks::total           1524853                       # number of writebacks
system.cpu.icache.demand_mshr_hits::.switch_cpus.inst       127997                       # number of demand (read+write) MSHR hits
system.cpu.icache.demand_mshr_hits::total       127997                       # number of demand (read+write) MSHR hits
system.cpu.icache.overall_mshr_hits::.switch_cpus.inst       127997                       # number of overall MSHR hits
system.cpu.icache.overall_mshr_hits::total       127997                       # number of overall MSHR hits
system.cpu.icache.demand_mshr_misses::.switch_cpus.inst      1533206                       # number of demand (read+write) MSHR misses
system.cpu.icache.demand_mshr_misses::total      1533206                       # number of demand (read+write) MSHR misses
system.cpu.icache.overall_mshr_misses::.switch_cpus.inst      1533206                       # number of overall MSHR misses
system.cpu.icache.overall_mshr_misses::total      1533206                       # number of overall MSHR misses
system.cpu.icache.demand_mshr_miss_latency::.switch_cpus.inst  34340738995                       # number of demand (read+write) MSHR miss cycles
system.cpu.icache.demand_mshr_miss_latency::total  34340738995                       # number of demand (read+write) MSHR miss cycles
system.cpu.icache.overall_mshr_miss_latency::.switch_cpus.inst  34340738995                       # number of overall MSHR miss cycles
system.cpu.icache.overall_mshr_miss_latency::total  34340738995                       # number of overall MSHR miss cycles
system.cpu.icache.demand_mshr_miss_rate::.switch_cpus.inst     0.004282                       # mshr miss rate for demand accesses
system.cpu.icache.demand_mshr_miss_rate::total     0.004282                       # mshr miss rate for demand accesses
system.cpu.icache.overall_mshr_miss_rate::.switch_cpus.inst     0.004282                       # mshr miss rate for overall accesses
system.cpu.icache.overall_mshr_miss_rate::total     0.004282                       # mshr miss rate for overall accesses
system.cpu.icache.demand_avg_mshr_miss_latency::.switch_cpus.inst 22397.994135                       # average overall mshr miss latency
system.cpu.icache.demand_avg_mshr_miss_latency::total 22397.994135                       # average overall mshr miss latency
system.cpu.icache.overall_avg_mshr_miss_latency::.switch_cpus.inst 22397.994135                       # average overall mshr miss latency
system.cpu.icache.overall_avg_mshr_miss_latency::total 22397.994135                       # average overall mshr miss latency
system.cpu.icache.replacements                 762173                       # number of replacements
system.cpu.icache.ReadReq_hits::.cpu.inst           16                       # number of ReadReq hits
system.cpu.icache.ReadReq_hits::.switch_cpus.inst    356422559                       # number of ReadReq hits
system.cpu.icache.ReadReq_hits::total       356422575                       # number of ReadReq hits
system.cpu.icache.ReadReq_misses::.cpu.inst            4                       # number of ReadReq misses
system.cpu.icache.ReadReq_misses::.switch_cpus.inst      1661203                       # number of ReadReq misses
system.cpu.icache.ReadReq_misses::total       1661207                       # number of ReadReq misses
system.cpu.icache.ReadReq_miss_latency::.switch_cpus.inst  37553053995                       # number of ReadReq miss cycles
system.cpu.icache.ReadReq_miss_latency::total  37553053995                       # number of ReadReq miss cycles
system.cpu.icache.ReadReq_accesses::.cpu.inst           20                       # number of ReadReq accesses(hits+misses)
system.cpu.icache.ReadReq_accesses::.switch_cpus.inst    358083762                       # number of ReadReq accesses(hits+misses)
system.cpu.icache.ReadReq_accesses::total    358083782                       # number of ReadReq accesses(hits+misses)
system.cpu.icache.ReadReq_miss_rate::.cpu.inst     0.200000                       # miss rate for ReadReq accesses
system.cpu.icache.ReadReq_miss_rate::.switch_cpus.inst     0.004639                       # miss rate for ReadReq accesses
system.cpu.icache.ReadReq_miss_rate::total     0.004639                       # miss rate for ReadReq accesses
system.cpu.icache.ReadReq_avg_miss_latency::.switch_cpus.inst 22605.939187                       # average ReadReq miss latency
system.cpu.icache.ReadReq_avg_miss_latency::total 22605.884754                       # average ReadReq miss latency
system.cpu.icache.ReadReq_mshr_hits::.switch_cpus.inst       127997                       # number of ReadReq MSHR hits
system.cpu.icache.ReadReq_mshr_hits::total       127997                       # number of ReadReq MSHR hits
system.cpu.icache.ReadReq_mshr_misses::.switch_cpus.inst      1533206                       # number of ReadReq MSHR misses
system.cpu.icache.ReadReq_mshr_misses::total      1533206                       # number of ReadReq MSHR misses
system.cpu.icache.ReadReq_mshr_miss_latency::.switch_cpus.inst  34340738995                       # number of ReadReq MSHR miss cycles
system.cpu.icache.ReadReq_mshr_miss_latency::total  34340738995                       # number of ReadReq MSHR miss cycles
system.cpu.icache.ReadReq_mshr_miss_rate::.switch_cpus.inst     0.004282                       # mshr miss rate for ReadReq accesses
system.cpu.icache.ReadReq_mshr_miss_rate::total     0.004282                       # mshr miss rate for ReadReq accesses
system.cpu.icache.ReadReq_avg_mshr_miss_latency::.switch_cpus.inst 22397.994135                       # average ReadReq mshr miss latency
system.cpu.icache.ReadReq_avg_mshr_miss_latency::total 22397.994135                       # average ReadReq mshr miss latency
system.cpu.icache.ghosttags.tagsinuse    -369962.802162                       # Cycle average of tags in use
system.cpu.icache.ghosttags.total_refs              0                       # Total number of references to valid blocks.
system.cpu.icache.ghosttags.sampled_refs            0                       # Sample count of references to valid blocks.
system.cpu.icache.ghosttags.avg_refs              nan                       # Average number of references to valid blocks.
system.cpu.icache.ghosttags.warmup_cycle 5336283276500                       # Cycle when the warmup percentage was hit.
system.cpu.icache.ghosttags.occ_blocks::.switch_cpus.inst 742140.041297                       # Average occupied blocks per requestor
system.cpu.icache.ghosttags.occ_percent::.switch_cpus.inst 23191.876291                       # Average percentage of cache occupancy
system.cpu.icache.ghosttags.occ_percent::total 23191.876291                       # Average percentage of cache occupancy
system.cpu.icache.ghosttags.tag_accesses      5307390                       # Number of tag accesses
system.cpu.icache.ghosttags.data_accesses      5307390                       # Number of data accesses
system.cpu.icache.ghosttags.repl_invalid            0                       # Number of initial replacements
system.cpu.icache.ghosttags.repl_valid_tag            0                       # Number of local replacements
system.cpu.icache.ghosttags.repl_valid_data            0                       # Number of global replacements
system.cpu.icache.ghosttags.power_state.pwrStateResidencyTicks::UNDEFINED 5851112166500                       # Cumulative time (in ticks) in various power states
system.cpu.icache.power_state.pwrStateResidencyTicks::UNDEFINED 5851112166500                       # Cumulative time (in ticks) in various power states
system.cpu.icache.tags.tagsinuse         -741628.217198                       # Cycle average of tags in use
system.cpu.icache.tags.total_refs           358718464                       # Total number of references to valid blocks.
system.cpu.icache.tags.sampled_refs           2295889                       # Sample count of references to valid blocks.
system.cpu.icache.tags.avg_refs            156.243818                       # Average number of references to valid blocks.
system.cpu.icache.tags.warmup_cycle      5336283087500                       # Cycle when the warmup percentage was hit.
system.cpu.icache.tags.occ_blocks::.cpu.inst     0.023402                       # Average occupied blocks per requestor
system.cpu.icache.tags.occ_blocks::.switch_cpus.inst -741628.240600                       # Average occupied blocks per requestor
system.cpu.icache.tags.occ_percent::.cpu.inst     0.000046                       # Average percentage of cache occupancy
system.cpu.icache.tags.occ_percent::.switch_cpus.inst -1448.492657                       # Average percentage of cache occupancy
system.cpu.icache.tags.occ_percent::total -1448.492612                       # Average percentage of cache occupancy
system.cpu.icache.tags.occ_task_id_blocks::1024          512                       # Occupied blocks per task id
system.cpu.icache.tags.age_task_id_blocks_1024::0           15                       # Occupied blocks per task id
system.cpu.icache.tags.age_task_id_blocks_1024::1           34                       # Occupied blocks per task id
system.cpu.icache.tags.age_task_id_blocks_1024::2           60                       # Occupied blocks per task id
system.cpu.icache.tags.age_task_id_blocks_1024::3          126                       # Occupied blocks per task id
system.cpu.icache.tags.age_task_id_blocks_1024::4          277                       # Occupied blocks per task id
system.cpu.icache.tags.occ_task_id_percent::1024            1                       # Percentage of cache occupancy per task id
system.cpu.icache.tags.tag_accesses        2865432941                       # Number of tag accesses
system.cpu.icache.tags.data_accesses       2865432941                       # Number of data accesses
system.cpu.icache.tags.repl_invalid                 0                       # Number of initial replacements
system.cpu.icache.tags.repl_valid_tag               0                       # Number of local replacements
system.cpu.icache.tags.repl_valid_data              0                       # Number of global replacements
system.cpu.icache.tags.power_state.pwrStateResidencyTicks::UNDEFINED 5851112166500                       # Cumulative time (in ticks) in various power states
system.cpu.itb.instHits                             0                       # ITB inst hits
system.cpu.itb.instMisses                           0                       # ITB inst misses
system.cpu.itb.readHits                             0                       # DTB read hits
system.cpu.itb.readMisses                           0                       # DTB read misses
system.cpu.itb.writeHits                            0                       # DTB write hits
system.cpu.itb.writeMisses                          0                       # DTB write misses
system.cpu.itb.inserts                              0                       # Number of times an entry is inserted into the TLB
system.cpu.itb.flushTlb                             2                       # Number of times complete TLB was flushed
system.cpu.itb.flushTlbMva                          0                       # Number of times TLB was flushed by MVA
[...]
system.switch_cpus.fetch.tlbCycles                560                       # Number of cycles fetch has spent waiting for tlb
system.switch_cpus.fetch.miscStallCycles          937                       # Number of cycles fetch has spent waiting on interrupts,or bad addresses, or out of MSHRs
system.switch_cpus.fetch.pendingTrapStallCycles         3383                       # Number of stall cycles due to pending traps
system.switch_cpus.fetch.icacheWaitRetryStallCycles          427                       # Number of stall cycles due to full MSHR
system.switch_cpus.fetch.cacheLines         358083765                       # Number of cache lines fetched
system.switch_cpus.fetch.icacheSquashes       8688676                       # Number of outstanding Icache misses that were squashed
system.switch_cpus.fetch.tlbSquashes                3                       # Number of outstanding ITLB misses that were squashed
system.switch_cpus.fetch.nisnDist::samples   1024705516                       # Number of instructions fetched each cycle (Total)
system.switch_cpus.fetch.nisnDist::mean      2.787405                       # Number of instructions fetched each cycle (Total)
system.switch_cpus.fetch.nisnDist::stdev     3.285241                       # Number of instructions fetched each cycle (Total)
system.switch_cpus.fetch.nisnDist::underflows            0      0.00%      0.00% # Number of instructions fetched each cycle (Total)
system.switch_cpus.fetch.nisnDist::0        483699911     47.20%     47.20% # Number of instructions fetched each cycle (Total)
system.switch_cpus.fetch.nisnDist::1         66820353      6.52%     53.72% # Number of instructions fetched each cycle (Total)
system.switch_cpus.fetch.nisnDist::2         61495885      6.00%     59.73% # Number of instructions fetched each cycle (Total)
system.switch_cpus.fetch.nisnDist::3         44085459      4.30%     64.03% # Number of instructions fetched each cycle (Total)
system.switch_cpus.fetch.nisnDist::4         57772931      5.64%     69.67% # Number of instructions fetched each cycle (Total)
system.switch_cpus.fetch.nisnDist::5         31907393      3.11%     72.78% # Number of instructions fetched each cycle (Total)
system.switch_cpus.fetch.nisnDist::6         27771699      2.71%     75.49% # Number of instructions fetched each cycle (Total)
system.switch_cpus.fetch.nisnDist::7         32273430      3.15%     78.64% # Number of instructions fetched each cycle (Total)
system.switch_cpus.fetch.nisnDist::8        218878455     21.36%    100.00% # Number of instructions fetched each cycle (Total)
system.switch_cpus.fetch.nisnDist::overflows            0      0.00%    100.00% # Number of instructions fetched each cycle (Total)
system.switch_cpus.fetch.nisnDist::min_value            0                       # Number of instructions fetched each cycle (Total)
system.switch_cpus.fetch.nisnDist::max_value            8                       # Number of instructions fetched each cycle (Total)
system.switch_cpus.fetch.nisnDist::total   1024705516                       # Number of instructions fetched each cycle (Total)
system.switch_cpus.fetch.branchRate          0.359272                       # Number of branch fetches per cycle
system.switch_cpus.fetch.rate                2.582408                       # Number of inst fetches per cycle
system.switch_cpus.itb.instHits                     0                       # ITB inst hits
system.switch_cpus.itb.instMisses                   0                       # ITB inst misses
system.switch_cpus.itb.readHits                     0                       # DTB read hits
system.switch_cpus.itb.readMisses                   0                       # DTB read misses
system.switch_cpus.itb.writeHits                    0                       # DTB write hits
system.switch_cpus.itb.writeMisses                  0                       # DTB write misses
system.switch_cpus.itb.inserts                      0                       # Number of times an entry is inserted into the TLB
system.switch_cpus.itb.flushTlb                     0                       # Number of times complete TLB was flushed
system.switch_cpus.itb.flushTlbMva                  0                       # Number of times TLB was flushed by MVA
system.switch_cpus.itb.flushTlbMvaAsid              0                       # Number of times TLB was flushed by MVA & ASID
system.switch_cpus.itb.flushTlbAsid                 0                       # Number of times TLB was flushed by ASID
system.switch_cpus.itb.flushedEntries               0                       # Number of entries that have been flushed from TLB
system.switch_cpus.itb.alignFaults                  0                       # Number of TLB faults due to alignment restrictions
system.switch_cpus.itb.prefetchFaults               0                       # Number of TLB faults due to prefetch
system.switch_cpus.itb.domainFaults                 0                       # Number of TLB faults due to domain restrictions
system.switch_cpus.itb.permsFaults                  0                       # Number of TLB faults due to permissions restrictions
system.switch_cpus.itb.readAccesses                 0                       # DTB read accesses
system.switch_cpus.itb.writeAccesses                0                       # DTB write accesses
system.switch_cpus.itb.instAccesses                 0                       # ITB inst accesses
system.switch_cpus.itb.hits                         0                       # Total TLB (inst and data) hits
system.switch_cpus.itb.misses                       0                       # Total TLB (inst and data) misses
system.switch_cpus.itb.accesses                     0                       # Total TLB (inst and data) accesses
system.switch_cpus.itb.stage2_mmu.stage2_tlb.instHits            0                       # ITB inst hits
system.switch_cpus.itb.stage2_mmu.stage2_tlb.instMisses            0                       # ITB inst misses
system.switch_cpus.itb.stage2_mmu.stage2_tlb.readHits            0                       # DTB read hits
system.switch_cpus.itb.stage2_mmu.stage2_tlb.readMisses            0                       # DTB read misses
system.switch_cpus.itb.stage2_mmu.stage2_tlb.writeHits            0                       # DTB write hits
system.switch_cpus.itb.stage2_mmu.stage2_tlb.writeMisses            0                       # DTB write misses
system.switch_cpus.itb.stage2_mmu.stage2_tlb.inserts            0                       # Number of times an entry is inserted into the TLB
system.switch_cpus.itb.stage2_mmu.stage2_tlb.flushTlb            0                       # Number of times complete TLB was flushed
system.switch_cpus.itb.stage2_mmu.stage2_tlb.flushTlbMva            0                       # Number of times TLB was flushed by MVA
system.switch_cpus.itb.stage2_mmu.stage2_tlb.flushTlbMvaAsid            0                       # Number of times TLB was flushed by MVA & ASID
system.switch_cpus.itb.stage2_mmu.stage2_tlb.flushTlbAsid            0                       # Number of times TLB was flushed by ASID
system.switch_cpus.itb.stage2_mmu.stage2_tlb.flushedEntries            0                       # Number of entries that have been flushed from TLB
system.switch_cpus.itb.stage2_mmu.stage2_tlb.alignFaults            0                       # Number of TLB faults due to alignment restrictions
system.switch_cpus.itb.stage2_mmu.stage2_tlb.prefetchFaults            0                       # Number of TLB faults due to prefetch
system.switch_cpus.itb.stage2_mmu.stage2_tlb.domainFaults            0                       # Number of TLB faults due to domain restrictions
system.switch_cpus.itb.stage2_mmu.stage2_tlb.permsFaults            0                       # Number of TLB faults due to permissions restrictions
system.switch_cpus.itb.stage2_mmu.stage2_tlb.readAccesses            0                       # DTB read accesses
system.switch_cpus.itb.stage2_mmu.stage2_tlb.writeAccesses            0                       # DTB write accesses
system.switch_cpus.itb.stage2_mmu.stage2_tlb.instAccesses            0                       # ITB inst accesses
system.switch_cpus.itb.stage2_mmu.stage2_tlb.hits            0                       # Total TLB (inst and data) hits
system.switch_cpus.itb.stage2_mmu.stage2_tlb.misses            0                       # Total TLB (inst and data) misses
system.switch_cpus.itb.stage2_mmu.stage2_tlb.accesses            0                       # Total TLB (inst and data) accesses
system.switch_cpus.itb.stage2_mmu.stage2_tlb.walker.walks            0                       # Table walker walks requested
system.switch_cpus.itb.stage2_mmu.stage2_tlb.walker.requestOrigin_Requested::Data            0                       # Table walker requests started/completed, data/inst
system.switch_cpus.itb.stage2_mmu.stage2_tlb.walker.requestOrigin_Requested::Inst            0                       # Table walker requests started/completed, data/inst
system.switch_cpus.itb.stage2_mmu.stage2_tlb.walker.requestOrigin_Requested::total            0                       # Table walker requests started/completed, data/inst
system.switch_cpus.itb.stage2_mmu.stage2_tlb.walker.requestOrigin_Completed::Data            0                       # Table walker requests started/completed, data/inst
system.switch_cpus.itb.stage2_mmu.stage2_tlb.walker.requestOrigin_Completed::Inst            0                       # Table walker requests started/completed, data/inst
system.switch_cpus.itb.stage2_mmu.stage2_tlb.walker.requestOrigin_Completed::total            0                       # Table walker requests started/completed, data/inst
system.switch_cpus.itb.stage2_mmu.stage2_tlb.walker.requestOrigin::total            0                       # Table walker requests started/completed, data/inst
system.switch_cpus.itb.stage2_mmu.stage2_tlb.walker.power_state.pwrStateResidencyTicks::UNDEFINED 5851112166500                       # Cumulative time (in ticks) in various power states
system.switch_cpus.itb.walker.walks                 0                       # Table walker walks requested
system.switch_cpus.itb.walker.requestOrigin_Requested::Data            0                       # Table walker requests started/completed, data/inst
system.switch_cpus.itb.walker.requestOrigin_Requested::Inst            0                       # Table walker requests started/completed, data/inst
system.switch_cpus.itb.walker.requestOrigin_Requested::total            0                       # Table walker requests started/completed, data/inst
system.switch_cpus.itb.walker.requestOrigin_Completed::Data            0                       # Table walker requests started/completed, data/inst
system.switch_cpus.itb.walker.requestOrigin_Completed::Inst            0                       # Table walker requests started/completed, data/inst
system.switch_cpus.itb.walker.requestOrigin_Completed::total            0                       # Table walker requests started/completed, data/inst
system.switch_cpus.itb.walker.requestOrigin::total            0                       # Table walker requests started/completed, data/inst
system.switch_cpus.itb.walker.power_state.pwrStateResidencyTicks::UNDEFINED 5851112166500                       # Cumulative time (in ticks) in various power states
system.switch_cpus.lsq0.forwLoads            26858684                       # Number of loads that had data forwarded from stores
system.switch_cpus.lsq0.squashedLoads        94198030                       # Number of loads squashed
system.switch_cpus.lsq0.ignoredResponses       151319                       # Number of memory responses ignored because the instruction is squashed
system.switch_cpus.lsq0.memOrderViolation       301442                       # Number of memory ordering violations
system.switch_cpus.lsq0.squashedStores       33463991                       # Number of stores squashed
system.switch_cpus.lsq0.rescheduledLoads      4961406                       # Number of loads that were rescheduled
system.switch_cpus.lsq0.blockedByCache          90382                       # Number of times an access to memory failed due to the cache being blocked
system.switch_cpus.power_state.pwrStateResidencyTicks::OFF 514829079500                       # Cumulative time (in ticks) in various power states
system.switch_cpus.rename.squashCycles       19053487                       # Number of cycles rename is squashing
system.switch_cpus.rename.idleCycles        377963187                       # Number of cycles rename is idle
system.switch_cpus.rename.blockCycles        72006198                       # Number of cycles rename is blocking
system.switch_cpus.rename.serializeStallCycles         6888                       # count of cycles rename stalledfor serializing inst
system.switch_cpus.rename.runCycles         497581323                       # Number of cycles rename is running
system.switch_cpus.rename.unblockCycles      58094431                       # Number of cycles rename is unblocking
system.switch_cpus.rename.renamedInsts     2695510327                       # Number of instructions processed by rename
system.switch_cpus.rename.ROBFullEvents       1107272                       # Number of times rename has blocked due to ROB full
system.switch_cpus.rename.IQFullEvents        4379622                       # Number of times rename has blocked due to IQ full
system.switch_cpus.rename.LQFullEvents       49941588                       # Number of times rename has blocked due to LQ full
system.switch_cpus.rename.SQFullEvents        2244161                       # Number of times rename has blocked due to SQ full
system.switch_cpus.rename.renamedOperands   2889602279                       # Number of destination operands rename has renamed
system.switch_cpus.rename.lookups          4251820032                       # Number of register rename lookups that rename has made
system.switch_cpus.rename.intLookups       3391207598                       # Number of integer rename lookups
system.switch_cpus.rename.vecLookups         33991967                       # Number of vector rename lookups
system.switch_cpus.rename.vecPredLookups          612                       # Number of vector predicate rename lookups
system.switch_cpus.rename.committedMaps    2300695185                       # Number of HB maps that are committed
system.switch_cpus.rename.undoneMaps        588907049                       # Number of HB maps that are undone due to squashing
system.switch_cpus.rename.serializing             115                       # count of serializing insts renamed
system.switch_cpus.rename.tempSerializing            6                       # count of temporary serializing insts renamed
system.switch_cpus.rename.skidInsts          28653375                       # count of insts added to the skid buffer
system.switch_cpus.rob.reads               3409863701                       # The number of ROB reads
system.switch_cpus.rob.writes              5218783171                       # The number of ROB writes
system.switch_cpus.thread0.numInsts        2000000000                       # Number of Instructions committed
system.switch_cpus.thread0.numOps          2148782969                       # Number of Ops committed
system.switch_cpus.thread0.numMemRefs               0                       # Number of Memory References
system.tol2bus.trans_dist::ReadResp           4197834                       # Transaction distribution
system.tol2bus.trans_dist::WritebackDirty      1862702                       # Transaction distribution
system.tol2bus.trans_dist::WritebackClean      2388225                       # Transaction distribution
system.tol2bus.trans_dist::CleanEvict         2219120                       # Transaction distribution
system.tol2bus.trans_dist::HardPFReq             1466                       # Transaction distribution
system.tol2bus.trans_dist::UpgradeReq          492005                       # Transaction distribution
system.tol2bus.trans_dist::UpgradeResp         492005                       # Transaction distribution
system.tol2bus.trans_dist::ReadExReq          1090527                       # Transaction distribution
system.tol2bus.trans_dist::ReadExResp         1090527                       # Transaction distribution
system.tol2bus.trans_dist::ReadCleanReq       4197829                       # Transaction distribution
system.tol2bus.trans_dist::ReadSharedReq            5                       # Transaction distribution
system.tol2bus.trans_dist::InvalidateReq        12762                       # Transaction distribution
system.tol2bus.trans_dist::InvalidateResp        12762                       # Transaction distribution
system.tol2bus.pkt_count_system.cpu.icache.mem_side_port::system.l2.cpu_side_port      4599116                       # Packet count per connected requestor and responder (bytes)
system.tol2bus.pkt_count_system.cpu.dcache.mem_side_port::system.l2.cpu_side_port     12286591                       # Packet count per connected requestor and responder (bytes)
system.tol2bus.pkt_count::total              16885707                       # Packet count per connected requestor and responder (bytes)
system.tol2bus.pkt_size_system.cpu.icache.mem_side_port::system.l2.cpu_side_port    146904384                       # Cumulative packet size per connected requestor and responder (bytes)
system.tol2bus.pkt_size_system.cpu.dcache.mem_side_port::system.l2.cpu_side_port    446482176                       # Cumulative packet size per connected requestor and responder (bytes)
system.tol2bus.pkt_size::total              593386560                       # Cumulative packet size per connected requestor and responder (bytes)
system.tol2bus.snoops                         1172062                       # Total snoops (count)
system.tol2bus.snoopTraffic                  17127872                       # Total snoop traffic (bytes)
system.tol2bus.snoop_fanout::samples          6965188                       # Request fanout histogram
system.tol2bus.snoop_fanout::mean            0.112032                       # Request fanout histogram
system.tol2bus.snoop_fanout::stdev           0.315406                       # Request fanout histogram
system.tol2bus.snoop_fanout::underflows             0      0.00%      0.00% # Request fanout histogram
system.tol2bus.snoop_fanout::0                6184861     88.80%     88.80% # Request fanout histogram
system.tol2bus.snoop_fanout::1                 780327     11.20%    100.00% # Request fanout histogram
system.tol2bus.snoop_fanout::2                      0      0.00%    100.00% # Request fanout histogram
system.tol2bus.snoop_fanout::overflows              0      0.00%    100.00% # Request fanout histogram
system.tol2bus.snoop_fanout::min_value              0                       # Request fanout histogram
system.tol2bus.snoop_fanout::max_value              1                       # Request fanout histogram
system.tol2bus.snoop_fanout::total            6965188                       # Request fanout histogram
system.tol2bus.power_state.pwrStateResidencyTicks::UNDEFINED 5851112166500                       # Cumulative time (in ticks) in various power states
system.tol2bus.reqLayer0.occupancy        11403366940                       # Layer occupancy (ticks)
system.tol2bus.reqLayer0.utilization              2.2                       # Layer utilization (%)
system.tol2bus.respLayer0.occupancy        2300801511                       # Layer occupancy (ticks)
system.tol2bus.respLayer0.utilization             0.4                       # Layer utilization (%)
system.tol2bus.respLayer1.occupancy        5886088524                       # Layer occupancy (ticks)
system.tol2bus.respLayer1.utilization             1.1                       # Layer utilization (%)
system.voltage_domain.voltage                       1                       # Voltage in Volts

---------- End Simulation Statistics   ----------
