warn: Base 10 memory/cache size 16384MB will be cast to base 2 size 16384MiB.
warn: Base 10 memory/cache size 8MB will be cast to base 2 size 8MiB.
warn: Base 10 memory/cache size 32kB will be cast to base 2 size 32KiB.
warn: Base 10 memory/cache size 32kB will be cast to base 2 size 32KiB.
warn: Base 10 memory/cache size 8MB will be cast to base 2 size 8MiB.
Global frequency set at 1000000000000 ticks per second
src/base/statistics.hh:279: warn: One of the stats is a legacy stat. Legacy stat is a stat that does not belong to any statistics::Group. Legacy stat is deprecated.
src/base/remote_gdb.cc:418: warn: Sockets disabled, not accepting gdb connections
src/sim/process.cc:396: warn: Checkpoints for pipes, device drivers and sockets do not work.
gem5 Simulator System.  https://www.gem5.org
gem5 is copyrighted software; use the --copyright option for details.

gem5 version 24.1.0.2
gem5 compiled Apr 11 2025 20:05:30
gem5 started Apr 19 2025 17:50:26
gem5 executing on kabini, pid 1988591
command line: /home/maintainer/cs773_CompArch-Perf-Security/Final_Project/Workspace/gem5-mirage-v24.0/build/ARM/gem5.opt --outdir=mirage_base_250419-17_50_25560 /home/maintainer/cs773_CompArch-Perf-Security/Final_Project/Workspace/gem5-mirage-v24.0/configs/se.py --cmd ../../exe/speed_bwaves_base.spec-64 --option bwaves_1 -i bwaves_1.in --checkpoint-dir=/home/maintainer/cs773_CompArch-Perf-Security/Final_Project/Workspace/SPEC17_workloads/checkpoints/bwaves --checkpoint-restore=10000000000 --at-instruction --num-cpus=1 --mem-size=16384MB --mem-type=DDR4_2400_8x8 --cpu-type DerivO3CPU --caches --l2cache --l1d_size=32kB --l1i_size=32kB --l2_size=8MB --l1d_assoc=8 --l1i_assoc=8 --l2_assoc=16 --warmup-insts=10000000000 --maxinsts=10000000000 --mirage_mode=Baseline --prog-interval=100Hz

info: Standard input is not a terminal, disabling listeners.
Switch at curTick count:10000
src/sim/simulate.cc:199: info: Entering event queue @ 6004359383000.  Starting simulation...
src/sim/power_state.cc:105: warn: PowerState: Already in the requested power state, request ignored
src/arch/arm/isa.hh:214: warn: User mode does not have SPSR
src/arch/arm/isa.hh:214: warn: User mode does not have SPSR
Switched CPUS @ tick 6004359393000
switching cpus
**** REAL SIMULATION ****
src/sim/simulate.cc:199: info: Entering event queue @ 6004359393000.  Starting simulation...
6014359383000: Event_144: system.switch_cpus progress event, total committed:16561517, progress insts committed: 16561517, IPC: 0.828076
6024359383000: Event_144: system.switch_cpus progress event, total committed:31811795, progress insts committed: 15250278, IPC: 0.762514
6034359383000: Event_144: system.switch_cpus progress event, total committed:47056135, progress insts committed: 15244340, IPC: 0.762217
6044359383000: Event_144: system.switch_cpus progress event, total committed:62286813, progress insts committed: 15230678, IPC: 0.761534
6054359383000: Event_144: system.switch_cpus progress event, total committed:77528599, progress insts committed: 15241786, IPC: 0.762089
6064359383000: Event_144: system.switch_cpus progress event, total committed:92774517, progress insts committed: 15245918, IPC: 0.762296
6074359383000: Event_144: system.switch_cpus progress event, total committed:108039895, progress insts committed: 15265378, IPC: 0.763269
6084359383000: Event_144: system.switch_cpus progress event, total committed:123287633, progress insts committed: 15247738, IPC: 0.762387
6094359383000: Event_144: system.switch_cpus progress event, total committed:138516953, progress insts committed: 15229320, IPC: 0.761466
6104359383000: Event_144: system.switch_cpus progress event, total committed:153763401, progress insts committed: 15246448, IPC: 0.762322
6114359383000: Event_144: system.switch_cpus progress event, total committed:169014258, progress insts committed: 15250857, IPC: 0.762543
6124359383000: Event_144: system.switch_cpus progress event, total committed:184246173, progress insts committed: 15231915, IPC: 0.761596
6134359383000: Event_144: system.switch_cpus progress event, total committed:199483526, progress insts committed: 15237353, IPC: 0.761868
6144359383000: Event_144: system.switch_cpus progress event, total committed:214740201, progress insts committed: 15256675, IPC: 0.762834
6154359383000: Event_144: system.switch_cpus progress event, total committed:229977835, progress insts committed: 15237634, IPC: 0.761882
6164359383000: Event_144: system.switch_cpus progress event, total committed:245218542, progress insts committed: 15240707, IPC: 0.762035
6174359383000: Event_144: system.switch_cpus progress event, total committed:260467688, progress insts committed: 15249146, IPC: 0.762457
6184359383000: Event_144: system.switch_cpus progress event, total committed:275698715, progress insts committed: 15231027, IPC: 0.761551
6194359383000: Event_144: system.switch_cpus progress event, total committed:290934921, progress insts committed: 15236206, IPC: 00.76181
6204359383000: Event_144: system.switch_cpus progress event, total committed:306174482, progress insts committed: 15239561, IPC: 0.761978
6214359383000: Event_144: system.switch_cpus progress event, total committed:321418386, progress insts committed: 15243904, IPC: 0.762195
6224359383000: Event_144: system.switch_cpus progress event, total committed:336665181, progress insts committed: 15246795, IPC: 00.76234
6234359383000: Event_144: system.switch_cpus progress event, total committed:351902550, progress insts committed: 15237369, IPC: 0.761868
6244359383000: Event_144: system.switch_cpus progress event, total committed:367143548, progress insts committed: 15240998, IPC: 00.76205
6254359383000: Event_144: system.switch_cpus progress event, total committed:382398332, progress insts committed: 15254784, IPC: 0.762739
6264359383000: Event_144: system.switch_cpus progress event, total committed:397625402, progress insts committed: 15227070, IPC: 0.761354
6274359383000: Event_144: system.switch_cpus progress event, total committed:412866302, progress insts committed: 15240900, IPC: 0.762045
6284359383000: Event_144: system.switch_cpus progress event, total committed:428115039, progress insts committed: 15248737, IPC: 0.762437
6294359383000: Event_144: system.switch_cpus progress event, total committed:443331523, progress insts committed: 15216484, IPC: 0.760824
6304359383000: Event_144: system.switch_cpus progress event, total committed:458565136, progress insts committed: 15233613, IPC: 0.761681
6314359383000: Event_144: system.switch_cpus progress event, total committed:473821600, progress insts committed: 15256464, IPC: 0.762823
6324359383000: Event_144: system.switch_cpus progress event, total committed:489083745, progress insts committed: 15262145, IPC: 0.763107
6334359383000: Event_144: system.switch_cpus progress event, total committed:504307318, progress insts committed: 15223573, IPC: 0.761179
6344359383000: Event_144: system.switch_cpus progress event, total committed:519555418, progress insts committed: 15248100, IPC: 0.762405
6354359383000: Event_144: system.switch_cpus progress event, total committed:534794105, progress insts committed: 15238687, IPC: 0.761934
6364359383000: Event_144: system.switch_cpus progress event, total committed:550034910, progress insts committed: 15240805, IPC: 00.76204
6374359383000: Event_144: system.switch_cpus progress event, total committed:565265259, progress insts committed: 15230349, IPC: 0.761517
6384359383000: Event_144: system.switch_cpus progress event, total committed:580517044, progress insts committed: 15251785, IPC: 0.762589
6394359383000: Event_144: system.switch_cpus progress event, total committed:595768068, progress insts committed: 15251024, IPC: 0.762551
6404359383000: Event_144: system.switch_cpus progress event, total committed:611014158, progress insts committed: 15246090, IPC: 0.762305
6414359383000: Event_144: system.switch_cpus progress event, total committed:626259703, progress insts committed: 15245545, IPC: 0.762277
6424359383000: Event_144: system.switch_cpus progress event, total committed:641510039, progress insts committed: 15250336, IPC: 0.762517
6434359383000: Event_144: system.switch_cpus progress event, total committed:656739714, progress insts committed: 15229675, IPC: 0.761484
6444359383000: Event_144: system.switch_cpus progress event, total committed:671975129, progress insts committed: 15235415, IPC: 0.761771
6454359383000: Event_144: system.switch_cpus progress event, total committed:687222337, progress insts committed: 15247208, IPC: 00.76236
6464359383000: Event_144: system.switch_cpus progress event, total committed:702451861, progress insts committed: 15229524, IPC: 0.761476
6474359383000: Event_144: system.switch_cpus progress event, total committed:717700674, progress insts committed: 15248813, IPC: 0.762441
6484359383000: Event_144: system.switch_cpus progress event, total committed:732955400, progress insts committed: 15254726, IPC: 0.762736
6494359383000: Event_144: system.switch_cpus progress event, total committed:748231292, progress insts committed: 15275892, IPC: 0.763795
src/arch/arm/insts/pseudo.cc:174: warn: 	instruction 'bti' unimplemented
6504359383000: Event_144: system.switch_cpus progress event, total committed:760393077, progress insts committed: 12161785, IPC: 0.608089
6514359383000: Event_144: system.switch_cpus progress event, total committed:772562536, progress insts committed: 12169459, IPC: 0.608473
6524359383000: Event_144: system.switch_cpus progress event, total committed:784636704, progress insts committed: 12074168, IPC: 0.603708
6534359383000: Event_144: system.switch_cpus progress event, total committed:796716908, progress insts committed: 12080204, IPC: 00.60401
6544359383000: Event_144: system.switch_cpus progress event, total committed:808796696, progress insts committed: 12079788, IPC: 0.603989
6554359383000: Event_144: system.switch_cpus progress event, total committed:820877469, progress insts committed: 12080773, IPC: 0.604039
6564359383000: Event_144: system.switch_cpus progress event, total committed:832945751, progress insts committed: 12068282, IPC: 0.603414
6574359383000: Event_144: system.switch_cpus progress event, total committed:845018431, progress insts committed: 12072680, IPC: 0.603634
6584359383000: Event_144: system.switch_cpus progress event, total committed:857092315, progress insts committed: 12073884, IPC: 0.603694
6594359383000: Event_144: system.switch_cpus progress event, total committed:869166022, progress insts committed: 12073707, IPC: 0.603685
6604359383000: Event_144: system.switch_cpus progress event, total committed:881243718, progress insts committed: 12077696, IPC: 0.603885
6614359383000: Event_144: system.switch_cpus progress event, total committed:893321888, progress insts committed: 12078170, IPC: 0.603908
6624359383000: Event_144: system.switch_cpus progress event, total committed:905403542, progress insts committed: 12081654, IPC: 0.604083
6634359383000: Event_144: system.switch_cpus progress event, total committed:917492510, progress insts committed: 12088968, IPC: 0.604448
6644359383000: Event_144: system.switch_cpus progress event, total committed:929578612, progress insts committed: 12086102, IPC: 0.604305
6654359383000: Event_144: system.switch_cpus progress event, total committed:941673639, progress insts committed: 12095027, IPC: 0.604751
6664359383000: Event_144: system.switch_cpus progress event, total committed:953739606, progress insts committed: 12065967, IPC: 0.603298
6674359383000: Event_144: system.switch_cpus progress event, total committed:965822025, progress insts committed: 12082419, IPC: 0.604121
6684359383000: Event_144: system.switch_cpus progress event, total committed:977898707, progress insts committed: 12076682, IPC: 0.603834
6694359383000: Event_144: system.switch_cpus progress event, total committed:989979184, progress insts committed: 12080477, IPC: 0.604024
6704359383000: Event_144: system.switch_cpus progress event, total committed:1002054516, progress insts committed: 12075332, IPC: 0.603767
6714359383000: Event_144: system.switch_cpus progress event, total committed:1014136974, progress insts committed: 12082458, IPC: 0.604123
6724359383000: Event_144: system.switch_cpus progress event, total committed:1026211266, progress insts committed: 12074292, IPC: 0.603715
6734359383000: Event_144: system.switch_cpus progress event, total committed:1038293297, progress insts committed: 12082031, IPC: 0.604102
6744359383000: Event_144: system.switch_cpus progress event, total committed:1050384890, progress insts committed: 12091593, IPC: 00.60458
6754359383000: Event_144: system.switch_cpus progress event, total committed:1062467365, progress insts committed: 12082475, IPC: 0.604124
6764359383000: Event_144: system.switch_cpus progress event, total committed:1074523846, progress insts committed: 12056481, IPC: 0.602824
6774359383000: Event_144: system.switch_cpus progress event, total committed:1086598407, progress insts committed: 12074561, IPC: 0.603728
6784359383000: Event_144: system.switch_cpus progress event, total committed:1098693268, progress insts committed: 12094861, IPC: 0.604743
6794359383000: Event_144: system.switch_cpus progress event, total committed:1110777051, progress insts committed: 12083783, IPC: 0.604189
6804359383000: Event_144: system.switch_cpus progress event, total committed:1122856292, progress insts committed: 12079241, IPC: 0.603962
6814359383000: Event_144: system.switch_cpus progress event, total committed:1134944070, progress insts committed: 12087778, IPC: 0.604389
6824359383000: Event_144: system.switch_cpus progress event, total committed:1147021720, progress insts committed: 12077650, IPC: 0.603882
6834359383000: Event_144: system.switch_cpus progress event, total committed:1159095097, progress insts committed: 12073377, IPC: 0.603669
6844359383000: Event_144: system.switch_cpus progress event, total committed:1171177208, progress insts committed: 12082111, IPC: 0.604106
6854359383000: Event_144: system.switch_cpus progress event, total committed:1183268696, progress insts committed: 12091488, IPC: 0.604574
6864359383000: Event_144: system.switch_cpus progress event, total committed:1195348109, progress insts committed: 12079413, IPC: 0.603971
6874359383000: Event_144: system.switch_cpus progress event, total committed:1207427616, progress insts committed: 12079507, IPC: 0.603975
6884359383000: Event_144: system.switch_cpus progress event, total committed:1219518086, progress insts committed: 12090470, IPC: 0.604523
6894359383000: Event_144: system.switch_cpus progress event, total committed:1231603786, progress insts committed: 12085700, IPC: 0.604285
6904359383000: Event_144: system.switch_cpus progress event, total committed:1243687771, progress insts committed: 12083985, IPC: 0.604199
6914359383000: Event_144: system.switch_cpus progress event, total committed:1255775503, progress insts committed: 12087732, IPC: 0.604387
6924359383000: Event_144: system.switch_cpus progress event, total committed:1267857264, progress insts committed: 12081761, IPC: 0.604088
6934359383000: Event_144: system.switch_cpus progress event, total committed:1279937790, progress insts committed: 12080526, IPC: 0.604026
6944359383000: Event_144: system.switch_cpus progress event, total committed:1292012876, progress insts committed: 12075086, IPC: 0.603754
6954359383000: Event_144: system.switch_cpus progress event, total committed:1304095262, progress insts committed: 12082386, IPC: 0.604119
6964359383000: Event_144: system.switch_cpus progress event, total committed:1316163034, progress insts committed: 12067772, IPC: 0.603389
6974359383000: Event_144: system.switch_cpus progress event, total committed:1328229676, progress insts committed: 12066642, IPC: 0.603332
6984359383000: Event_144: system.switch_cpus progress event, total committed:1340320267, progress insts committed: 12090591, IPC: 00.60453
6994359383000: Event_144: system.switch_cpus progress event, total committed:1352405735, progress insts committed: 12085468, IPC: 0.604273
7004359383000: Event_144: system.switch_cpus progress event, total committed:1364490769, progress insts committed: 12085034, IPC: 0.604252
7014359383000: Event_144: system.switch_cpus progress event, total committed:1376579387, progress insts committed: 12088618, IPC: 0.604431
7024359383000: Event_144: system.switch_cpus progress event, total committed:1388659934, progress insts committed: 12080547, IPC: 0.604027
7034359383000: Event_144: system.switch_cpus progress event, total committed:1400733389, progress insts committed: 12073455, IPC: 0.603673
7044359383000: Event_144: system.switch_cpus progress event, total committed:1412817593, progress insts committed: 12084204, IPC: 00.60421
7054359383000: Event_144: system.switch_cpus progress event, total committed:1424906031, progress insts committed: 12088438, IPC: 0.604422
7064359383000: Event_144: system.switch_cpus progress event, total committed:1436988324, progress insts committed: 12082293, IPC: 0.604115
7074359383000: Event_144: system.switch_cpus progress event, total committed:1449074481, progress insts committed: 12086157, IPC: 0.604308
7084359383000: Event_144: system.switch_cpus progress event, total committed:1461163389, progress insts committed: 12088908, IPC: 0.604445
7094359383000: Event_144: system.switch_cpus progress event, total committed:1473251339, progress insts committed: 12087950, IPC: 0.604398
7104359383000: Event_144: system.switch_cpus progress event, total committed:1485332391, progress insts committed: 12081052, IPC: 0.604053
7114359383000: Event_144: system.switch_cpus progress event, total committed:1497411134, progress insts committed: 12078743, IPC: 0.603937
7124359383000: Event_144: system.switch_cpus progress event, total committed:1509502712, progress insts committed: 12091578, IPC: 0.604579
7134359383000: Event_144: system.switch_cpus progress event, total committed:1521573072, progress insts committed: 12070360, IPC: 0.603518
7144359383000: Event_144: system.switch_cpus progress event, total committed:1533657913, progress insts committed: 12084841, IPC: 0.604242
7154359383000: Event_144: system.switch_cpus progress event, total committed:1545742964, progress insts committed: 12085051, IPC: 0.604253
7164359383000: Event_144: system.switch_cpus progress event, total committed:1557826428, progress insts committed: 12083464, IPC: 0.604173
7174359383000: Event_144: system.switch_cpus progress event, total committed:1569906656, progress insts committed: 12080228, IPC: 0.604011
7184359383000: Event_144: system.switch_cpus progress event, total committed:1581978759, progress insts committed: 12072103, IPC: 0.603605
7194359383000: Event_144: system.switch_cpus progress event, total committed:1594055027, progress insts committed: 12076268, IPC: 0.603813
7204359383000: Event_144: system.switch_cpus progress event, total committed:1606128902, progress insts committed: 12073875, IPC: 0.603694
7214359383000: Event_144: system.switch_cpus progress event, total committed:1618202461, progress insts committed: 12073559, IPC: 0.603678
7224359383000: Event_144: system.switch_cpus progress event, total committed:1630298183, progress insts committed: 12095722, IPC: 0.604786
7234359383000: Event_144: system.switch_cpus progress event, total committed:1642378765, progress insts committed: 12080582, IPC: 0.604029
7244359383000: Event_144: system.switch_cpus progress event, total committed:1654459608, progress insts committed: 12080843, IPC: 0.604042
7254359383000: Event_144: system.switch_cpus progress event, total committed:1666536549, progress insts committed: 12076941, IPC: 0.603847
7264359383000: Event_144: system.switch_cpus progress event, total committed:1678630429, progress insts committed: 12093880, IPC: 0.604694
7274359383000: Event_144: system.switch_cpus progress event, total committed:1690720376, progress insts committed: 12089947, IPC: 0.604497
7284359383000: Event_144: system.switch_cpus progress event, total committed:1702814359, progress insts committed: 12093983, IPC: 0.604699
7294359383000: Event_144: system.switch_cpus progress event, total committed:1714898925, progress insts committed: 12084566, IPC: 0.604228
7304359383000: Event_144: system.switch_cpus progress event, total committed:1726976835, progress insts committed: 12077910, IPC: 0.603896
7314359383000: Event_144: system.switch_cpus progress event, total committed:1739063016, progress insts committed: 12086181, IPC: 0.604309
7324359383000: Event_144: system.switch_cpus progress event, total committed:1751129496, progress insts committed: 12066480, IPC: 0.603324
7334359383000: Event_144: system.switch_cpus progress event, total committed:1763202320, progress insts committed: 12072824, IPC: 0.603641
7344359383000: Event_144: system.switch_cpus progress event, total committed:1775265775, progress insts committed: 12063455, IPC: 0.603173
7354359383000: Event_144: system.switch_cpus progress event, total committed:1787332214, progress insts committed: 12066439, IPC: 0.603322
7364359383000: Event_144: system.switch_cpus progress event, total committed:1799420192, progress insts committed: 12087978, IPC: 0.604399
7374359383000: Event_144: system.switch_cpus progress event, total committed:1811492565, progress insts committed: 12072373, IPC: 0.603619
7384359383000: Event_144: system.switch_cpus progress event, total committed:1823571144, progress insts committed: 12078579, IPC: 0.603929
7394359383000: Event_144: system.switch_cpus progress event, total committed:1835646331, progress insts committed: 12075187, IPC: 0.603759
7404359383000: Event_144: system.switch_cpus progress event, total committed:1847726715, progress insts committed: 12080384, IPC: 0.604019
7414359383000: Event_144: system.switch_cpus progress event, total committed:1859815468, progress insts committed: 12088753, IPC: 0.604438
7424359383000: Event_144: system.switch_cpus progress event, total committed:1871892555, progress insts committed: 12077087, IPC: 0.603854
7434359383000: Event_144: system.switch_cpus progress event, total committed:1883977648, progress insts committed: 12085093, IPC: 0.604255
7444359383000: Event_144: system.switch_cpus progress event, total committed:1896058766, progress insts committed: 12081118, IPC: 0.604056
7454359383000: Event_144: system.switch_cpus progress event, total committed:1908142202, progress insts committed: 12083436, IPC: 0.604172
7464359383000: Event_144: system.switch_cpus progress event, total committed:1920240390, progress insts committed: 12098188, IPC: 0.604909
7474359383000: Event_144: system.switch_cpus progress event, total committed:1932318653, progress insts committed: 12078263, IPC: 0.603913
7484359383000: Event_144: system.switch_cpus progress event, total committed:1944408760, progress insts committed: 12090107, IPC: 0.604505
7494359383000: Event_144: system.switch_cpus progress event, total committed:1956497082, progress insts committed: 12088322, IPC: 0.604416
7504359383000: Event_144: system.switch_cpus progress event, total committed:1968586041, progress insts committed: 12088959, IPC: 0.604448
7514359383000: Event_144: system.switch_cpus progress event, total committed:1980663398, progress insts committed: 12077357, IPC: 0.603868
7524359383000: Event_144: system.switch_cpus progress event, total committed:1992734050, progress insts committed: 12070652, IPC: 0.603533
7534359383000: Event_144: system.switch_cpus progress event, total committed:2004803209, progress insts committed: 12069159, IPC: 0.603458
7544359383000: Event_144: system.switch_cpus progress event, total committed:2016889297, progress insts committed: 12086088, IPC: 0.604304
7554359383000: Event_144: system.switch_cpus progress event, total committed:2028965496, progress insts committed: 12076199, IPC: 00.60381
7564359383000: Event_144: system.switch_cpus progress event, total committed:2041042827, progress insts committed: 12077331, IPC: 0.603867
7574359383000: Event_144: system.switch_cpus progress event, total committed:2053128077, progress insts committed: 12085250, IPC: 0.604263
7584359383000: Event_144: system.switch_cpus progress event, total committed:2065199580, progress insts committed: 12071503, IPC: 0.603575
src/arch/arm/insts/pseudo.cc:174: warn: 	instruction 'bti' unimplemented
src/sim/mem_state.cc:448: info: Increasing stack size by one page.
 Time step:      1  dt:    0.26805236261E-03
7594359383000: Event_144: system.switch_cpus progress event, total committed:2076118170, progress insts committed: 10918590, IPC: 0.545929
7604359383000: Event_144: system.switch_cpus progress event, total committed:2083892099, progress insts committed: 7773929, IPC: 0.388696
7614359383000: Event_144: system.switch_cpus progress event, total committed:2090303098, progress insts committed: 6410999, IPC: 00.32055
7624359383000: Event_144: system.switch_cpus progress event, total committed:2096795480, progress insts committed: 6492382, IPC: 0.324619
7634359383000: Event_144: system.switch_cpus progress event, total committed:2103288174, progress insts committed: 6492694, IPC: 0.324635
7644359383000: Event_144: system.switch_cpus progress event, total committed:2109697746, progress insts committed: 6409572, IPC: 0.320479
7654359383000: Event_144: system.switch_cpus progress event, total committed:2116107217, progress insts committed: 6409471, IPC: 0.320474
7664359383000: Event_144: system.switch_cpus progress event, total committed:2122518366, progress insts committed: 6411149, IPC: 0.320557
7674359383000: Event_144: system.switch_cpus progress event, total committed:2128927883, progress insts committed: 6409517, IPC: 0.320476
7684359383000: Event_144: system.switch_cpus progress event, total committed:2135336994, progress insts committed: 6409111, IPC: 0.320456
7694359383000: Event_144: system.switch_cpus progress event, total committed:2141747442, progress insts committed: 6410448, IPC: 0.320522
7704359383000: Event_144: system.switch_cpus progress event, total committed:2148157958, progress insts committed: 6410516, IPC: 0.320526
7714359383000: Event_144: system.switch_cpus progress event, total committed:2154567611, progress insts committed: 6409653, IPC: 0.320483
7724359383000: Event_144: system.switch_cpus progress event, total committed:2160977502, progress insts committed: 6409891, IPC: 0.320495
7734359383000: Event_144: system.switch_cpus progress event, total committed:2167387255, progress insts committed: 6409753, IPC: 0.320488
7744359383000: Event_144: system.switch_cpus progress event, total committed:2173796779, progress insts committed: 6409524, IPC: 0.320476
7754359383000: Event_144: system.switch_cpus progress event, total committed:2180207005, progress insts committed: 6410226, IPC: 0.320511
7764359383000: Event_144: system.switch_cpus progress event, total committed:2186616766, progress insts committed: 6409761, IPC: 0.320488
7774359383000: Event_144: system.switch_cpus progress event, total committed:2193027138, progress insts committed: 6410372, IPC: 0.320519
7784359383000: Event_144: system.switch_cpus progress event, total committed:2199436831, progress insts committed: 6409693, IPC: 0.320485
7794359383000: Event_144: system.switch_cpus progress event, total committed:2205846384, progress insts committed: 6409553, IPC: 0.320478
7804359383000: Event_144: system.switch_cpus progress event, total committed:2212256443, progress insts committed: 6410059, IPC: 0.320503
7814359383000: Event_144: system.switch_cpus progress event, total committed:2218666386, progress insts committed: 6409943, IPC: 0.320497
7824359383000: Event_144: system.switch_cpus progress event, total committed:2225076282, progress insts committed: 6409896, IPC: 0.320495
7834359383000: Event_144: system.switch_cpus progress event, total committed:2231486634, progress insts committed: 6410352, IPC: 0.320518
7844359383000: Event_144: system.switch_cpus progress event, total committed:2237896326, progress insts committed: 6409692, IPC: 0.320485
7854359383000: Event_144: system.switch_cpus progress event, total committed:2244306199, progress insts committed: 6409873, IPC: 0.320494
7864359383000: Event_144: system.switch_cpus progress event, total committed:2250715840, progress insts committed: 6409641, IPC: 0.320482
7874359383000: Event_144: system.switch_cpus progress event, total committed:2257125555, progress insts committed: 6409715, IPC: 0.320486
7884359383000: Event_144: system.switch_cpus progress event, total committed:2263536855, progress insts committed: 6411300, IPC: 0.320565
7894359383000: Event_144: system.switch_cpus progress event, total committed:2269945326, progress insts committed: 6408471, IPC: 0.320424
7904359383000: Event_144: system.switch_cpus progress event, total committed:2276354891, progress insts committed: 6409565, IPC: 0.320478
7914359383000: Event_144: system.switch_cpus progress event, total committed:2282765291, progress insts committed: 6410400, IPC: 00.32052
7924359383000: Event_144: system.switch_cpus progress event, total committed:2289174882, progress insts committed: 6409591, IPC: 00.32048
7934359383000: Event_144: system.switch_cpus progress event, total committed:2295584810, progress insts committed: 6409928, IPC: 0.320496
7944359383000: Event_144: system.switch_cpus progress event, total committed:2301995250, progress insts committed: 6410440, IPC: 0.320522
7954359383000: Event_144: system.switch_cpus progress event, total committed:2308405578, progress insts committed: 6410328, IPC: 0.320516
7964359383000: Event_144: system.switch_cpus progress event, total committed:2314814890, progress insts committed: 6409312, IPC: 0.320466
7974359383000: Event_144: system.switch_cpus progress event, total committed:2321225309, progress insts committed: 6410419, IPC: 0.320521
7984359383000: Event_144: system.switch_cpus progress event, total committed:2327635047, progress insts committed: 6409738, IPC: 0.320487
7994359383000: Event_144: system.switch_cpus progress event, total committed:2334044519, progress insts committed: 6409472, IPC: 0.320474
8004359383000: Event_144: system.switch_cpus progress event, total committed:2340454654, progress insts committed: 6410135, IPC: 0.320507
8014359383000: Event_144: system.switch_cpus progress event, total committed:2346864702, progress insts committed: 6410048, IPC: 0.320502
8024359383000: Event_144: system.switch_cpus progress event, total committed:2353274738, progress insts committed: 6410036, IPC: 0.320502
8034359383000: Event_144: system.switch_cpus progress event, total committed:2359685042, progress insts committed: 6410304, IPC: 0.320515
8044359383000: Event_144: system.switch_cpus progress event, total committed:2366094331, progress insts committed: 6409289, IPC: 0.320464
8054359383000: Event_144: system.switch_cpus progress event, total committed:2372504294, progress insts committed: 6409963, IPC: 0.320498
8064359383000: Event_144: system.switch_cpus progress event, total committed:2378915247, progress insts committed: 6410953, IPC: 0.320548
8074359383000: Event_144: system.switch_cpus progress event, total committed:2385324522, progress insts committed: 6409275, IPC: 0.320464
8084359383000: Event_144: system.switch_cpus progress event, total committed:2391733639, progress insts committed: 6409117, IPC: 0.320456
8094359383000: Event_144: system.switch_cpus progress event, total committed:2398144282, progress insts committed: 6410643, IPC: 0.320532
8104359383000: Event_144: system.switch_cpus progress event, total committed:2404554131, progress insts committed: 6409849, IPC: 0.320492
8114359383000: Event_144: system.switch_cpus progress event, total committed:2410963790, progress insts committed: 6409659, IPC: 0.320483
8124359383000: Event_144: system.switch_cpus progress event, total committed:2417373491, progress insts committed: 6409701, IPC: 0.320485
8134359383000: Event_144: system.switch_cpus progress event, total committed:2423784046, progress insts committed: 6410555, IPC: 0.320528
8144359383000: Event_144: system.switch_cpus progress event, total committed:2430193802, progress insts committed: 6409756, IPC: 0.320488
8154359383000: Event_144: system.switch_cpus progress event, total committed:2436602827, progress insts committed: 6409025, IPC: 0.320451
8164359383000: Event_144: system.switch_cpus progress event, total committed:2443013939, progress insts committed: 6411112, IPC: 0.320556
8174359383000: Event_144: system.switch_cpus progress event, total committed:2449413562, progress insts committed: 6399623, IPC: 0.319981
8184359383000: Event_144: system.switch_cpus progress event, total committed:2456194630, progress insts committed: 6781068, IPC: 0.339053
8194359383000: Event_144: system.switch_cpus progress event, total committed:2464070758, progress insts committed: 7876128, IPC: 0.393806
8204359383000: Event_144: system.switch_cpus progress event, total committed:2471956096, progress insts committed: 7885338, IPC: 0.394267
8214359383000: Event_144: system.switch_cpus progress event, total committed:2479840034, progress insts committed: 7883938, IPC: 0.394197
8224359383000: Event_144: system.switch_cpus progress event, total committed:2487714157, progress insts committed: 7874123, IPC: 0.393706
8234359383000: Event_144: system.switch_cpus progress event, total committed:2495601471, progress insts committed: 7887314, IPC: 0.394366
8244359383000: Event_144: system.switch_cpus progress event, total committed:2503484534, progress insts committed: 7883063, IPC: 0.394153
8254359383000: Event_144: system.switch_cpus progress event, total committed:2511366126, progress insts committed: 7881592, IPC: 00.39408
8264359383000: Event_144: system.switch_cpus progress event, total committed:2519257572, progress insts committed: 7891446, IPC: 0.394572
8274359383000: Event_144: system.switch_cpus progress event, total committed:2527132259, progress insts committed: 7874687, IPC: 0.393734
8284359383000: Event_144: system.switch_cpus progress event, total committed:2535024997, progress insts committed: 7892738, IPC: 0.394637
8294359383000: Event_144: system.switch_cpus progress event, total committed:2542904569, progress insts committed: 7879572, IPC: 0.393979
8304359383000: Event_144: system.switch_cpus progress event, total committed:2550786833, progress insts committed: 7882264, IPC: 0.394113
8314359383000: Event_144: system.switch_cpus progress event, total committed:2558671104, progress insts committed: 7884271, IPC: 0.394214
8324359383000: Event_144: system.switch_cpus progress event, total committed:2566550223, progress insts committed: 7879119, IPC: 0.393956
8334359383000: Event_144: system.switch_cpus progress event, total committed:2574437214, progress insts committed: 7886991, IPC: 00.39435
8344359383000: Event_144: system.switch_cpus progress event, total committed:2582312821, progress insts committed: 7875607, IPC: 00.39378
8354359383000: Event_144: system.switch_cpus progress event, total committed:2590188838, progress insts committed: 7876017, IPC: 0.393801
8364359383000: Event_144: system.switch_cpus progress event, total committed:2598082392, progress insts committed: 7893554, IPC: 0.394678
8374359383000: Event_144: system.switch_cpus progress event, total committed:2605955411, progress insts committed: 7873019, IPC: 0.393651
8384359383000: Event_144: system.switch_cpus progress event, total committed:2613847759, progress insts committed: 7892348, IPC: 0.394617
8394359383000: Event_144: system.switch_cpus progress event, total committed:2621731538, progress insts committed: 7883779, IPC: 0.394189
8404359383000: Event_144: system.switch_cpus progress event, total committed:2629614714, progress insts committed: 7883176, IPC: 0.394159
8414359383000: Event_144: system.switch_cpus progress event, total committed:2637500397, progress insts committed: 7885683, IPC: 0.394284
8424359383000: Event_144: system.switch_cpus progress event, total committed:2645373071, progress insts committed: 7872674, IPC: 0.393634
8434359383000: Event_144: system.switch_cpus progress event, total committed:2653269146, progress insts committed: 7896075, IPC: 0.394804
8444359383000: Event_144: system.switch_cpus progress event, total committed:2661148804, progress insts committed: 7879658, IPC: 0.393983
8454359383000: Event_144: system.switch_cpus progress event, total committed:2669027829, progress insts committed: 7879025, IPC: 0.393951
8464359383000: Event_144: system.switch_cpus progress event, total committed:2676915607, progress insts committed: 7887778, IPC: 0.394389
8474359383000: Event_144: system.switch_cpus progress event, total committed:2684793912, progress insts committed: 7878305, IPC: 0.393915
8484359383000: Event_144: system.switch_cpus progress event, total committed:2692686519, progress insts committed: 7892607, IPC: 00.39463
8494359383000: Event_144: system.switch_cpus progress event, total committed:2700570232, progress insts committed: 7883713, IPC: 0.394186
8504359383000: Event_144: system.switch_cpus progress event, total committed:2708451921, progress insts committed: 7881689, IPC: 0.394084
8514359383000: Event_144: system.switch_cpus progress event, total committed:2716336370, progress insts committed: 7884449, IPC: 0.394222
8524359383000: Event_144: system.switch_cpus progress event, total committed:2724210775, progress insts committed: 7874405, IPC: 00.39372
8534359383000: Event_144: system.switch_cpus progress event, total committed:2732101398, progress insts committed: 7890623, IPC: 0.394531
8544359383000: Event_144: system.switch_cpus progress event, total committed:2739979147, progress insts committed: 7877749, IPC: 0.393887
8554359383000: Event_144: system.switch_cpus progress event, total committed:2747859435, progress insts committed: 7880288, IPC: 0.394014
8564359383000: Event_144: system.switch_cpus progress event, total committed:2755739716, progress insts committed: 7880281, IPC: 0.394014
8574359383000: Event_144: system.switch_cpus progress event, total committed:2763619577, progress insts committed: 7879861, IPC: 0.393993
8584359383000: Event_144: system.switch_cpus progress event, total committed:2771503793, progress insts committed: 7884216, IPC: 0.394211
8594359383000: Event_144: system.switch_cpus progress event, total committed:2779378496, progress insts committed: 7874703, IPC: 0.393735
8604359383000: Event_144: system.switch_cpus progress event, total committed:2787255567, progress insts committed: 7877071, IPC: 0.393854
8614359383000: Event_144: system.switch_cpus progress event, total committed:2795144521, progress insts committed: 7888954, IPC: 0.394448
8624359383000: Event_144: system.switch_cpus progress event, total committed:2803018592, progress insts committed: 7874071, IPC: 0.393704
8634359383000: Event_144: system.switch_cpus progress event, total committed:2810912424, progress insts committed: 7893832, IPC: 0.394692
8644359383000: Event_144: system.switch_cpus progress event, total committed:2818790202, progress insts committed: 7877778, IPC: 0.393889
8654359383000: Event_144: system.switch_cpus progress event, total committed:2826660783, progress insts committed: 7870581, IPC: 0.393529
8664359383000: Event_144: system.switch_cpus progress event, total committed:2834552760, progress insts committed: 7891977, IPC: 0.394599
8674359383000: Event_144: system.switch_cpus progress event, total committed:2842423958, progress insts committed: 7871198, IPC: 00.39356
8684359383000: Event_144: system.switch_cpus progress event, total committed:2850315423, progress insts committed: 7891465, IPC: 0.394573
8694359383000: Event_144: system.switch_cpus progress event, total committed:2858194956, progress insts committed: 7879533, IPC: 0.393977
8704359383000: Event_144: system.switch_cpus progress event, total committed:2866073009, progress insts committed: 7878053, IPC: 0.393903
8714359383000: Event_144: system.switch_cpus progress event, total committed:2873960016, progress insts committed: 7887007, IPC: 00.39435
8724359383000: Event_144: system.switch_cpus progress event, total committed:2881841320, progress insts committed: 7881304, IPC: 0.394065
8734359383000: Event_144: system.switch_cpus progress event, total committed:2889724344, progress insts committed: 7883024, IPC: 0.394151
8744359383000: Event_144: system.switch_cpus progress event, total committed:2897601800, progress insts committed: 7877456, IPC: 0.393873
8754359383000: Event_144: system.switch_cpus progress event, total committed:2905487639, progress insts committed: 7885839, IPC: 0.394292
8764359383000: Event_144: system.switch_cpus progress event, total committed:2913372499, progress insts committed: 7884860, IPC: 0.394243
8774359383000: Event_144: system.switch_cpus progress event, total committed:2921255096, progress insts committed: 7882597, IPC: 00.39413
8784359383000: Event_144: system.switch_cpus progress event, total committed:2929144376, progress insts committed: 7889280, IPC: 0.394464
8794359383000: Event_144: system.switch_cpus progress event, total committed:2937017712, progress insts committed: 7873336, IPC: 0.393667
8804359383000: Event_144: system.switch_cpus progress event, total committed:2944895210, progress insts committed: 7877498, IPC: 0.393875
8814359383000: Event_144: system.switch_cpus progress event, total committed:2952787703, progress insts committed: 7892493, IPC: 0.394625
8824359383000: Event_144: system.switch_cpus progress event, total committed:2960667561, progress insts committed: 7879858, IPC: 0.393993
8834359383000: Event_144: system.switch_cpus progress event, total committed:2968558927, progress insts committed: 7891366, IPC: 0.394568
8844359383000: Event_144: system.switch_cpus progress event, total committed:2976447529, progress insts committed: 7888602, IPC: 00.39443
8854359383000: Event_144: system.switch_cpus progress event, total committed:2984317420, progress insts committed: 7869891, IPC: 0.393495
8864359383000: Event_144: system.switch_cpus progress event, total committed:2992210112, progress insts committed: 7892692, IPC: 0.394635
8874359383000: Event_144: system.switch_cpus progress event, total committed:3000088657, progress insts committed: 7878545, IPC: 0.393927
8884359383000: Event_144: system.switch_cpus progress event, total committed:3007974854, progress insts committed: 7886197, IPC: 00.39431
8894359383000: Event_144: system.switch_cpus progress event, total committed:3015858254, progress insts committed: 7883400, IPC: 00.39417
8904359383000: Event_144: system.switch_cpus progress event, total committed:3023738685, progress insts committed: 7880431, IPC: 0.394022
8914359383000: Event_144: system.switch_cpus progress event, total committed:3031629534, progress insts committed: 7890849, IPC: 0.394542
8924359383000: Event_144: system.switch_cpus progress event, total committed:3039506749, progress insts committed: 7877215, IPC: 0.393861
8934359383000: Event_144: system.switch_cpus progress event, total committed:3047394797, progress insts committed: 7888048, IPC: 0.394402
8944359383000: Event_144: system.switch_cpus progress event, total committed:3055271254, progress insts committed: 7876457, IPC: 0.393823
8954359383000: Event_144: system.switch_cpus progress event, total committed:3063151270, progress insts committed: 7880016, IPC: 0.394001
8964359383000: Event_144: system.switch_cpus progress event, total committed:3071036696, progress insts committed: 7885426, IPC: 0.394271
8974359383000: Event_144: system.switch_cpus progress event, total committed:3078914592, progress insts committed: 7877896, IPC: 0.393895
8984359383000: Event_144: system.switch_cpus progress event, total committed:3086800998, progress insts committed: 7886406, IPC: 00.39432
8994359383000: Event_144: system.switch_cpus progress event, total committed:3094685471, progress insts committed: 7884473, IPC: 0.394224
9004359383000: Event_144: system.switch_cpus progress event, total committed:3102555337, progress insts committed: 7869866, IPC: 0.393493
9014359383000: Event_144: system.switch_cpus progress event, total committed:3110449246, progress insts committed: 7893909, IPC: 0.394695
9024359383000: Event_144: system.switch_cpus progress event, total committed:3118325119, progress insts committed: 7875873, IPC: 0.393794
9034359383000: Event_144: system.switch_cpus progress event, total committed:3126206533, progress insts committed: 7881414, IPC: 0.394071
9044359383000: Event_144: system.switch_cpus progress event, total committed:3134086830, progress insts committed: 7880297, IPC: 0.394015
9054359383000: Event_144: system.switch_cpus progress event, total committed:3141966436, progress insts committed: 7879606, IPC: 00.39398
9064359383000: Event_144: system.switch_cpus progress event, total committed:3149857772, progress insts committed: 7891336, IPC: 0.394567
9074359383000: Event_144: system.switch_cpus progress event, total committed:3157739337, progress insts committed: 7881565, IPC: 0.394078
9084359383000: Event_144: system.switch_cpus progress event, total committed:3165621788, progress insts committed: 7882451, IPC: 0.394123
9094359383000: Event_144: system.switch_cpus progress event, total committed:3173500949, progress insts committed: 7879161, IPC: 0.393958
9104359383000: Event_144: system.switch_cpus progress event, total committed:3181379506, progress insts committed: 7878557, IPC: 0.393928
9114359383000: Event_144: system.switch_cpus progress event, total committed:3189275011, progress insts committed: 7895505, IPC: 0.394775
9124359383000: Event_144: system.switch_cpus progress event, total committed:3197154375, progress insts committed: 7879364, IPC: 0.393968
9134359383000: Event_144: system.switch_cpus progress event, total committed:3205043801, progress insts committed: 7889426, IPC: 0.394471
9144359383000: Event_144: system.switch_cpus progress event, total committed:3212919276, progress insts committed: 7875475, IPC: 0.393774
9154359383000: Event_144: system.switch_cpus progress event, total committed:3220794666, progress insts committed: 7875390, IPC: 0.393769
9164359383000: Event_144: system.switch_cpus progress event, total committed:3228683640, progress insts committed: 7888974, IPC: 0.394449
9174359383000: Event_144: system.switch_cpus progress event, total committed:3236560173, progress insts committed: 7876533, IPC: 0.393827
9184359383000: Event_144: system.switch_cpus progress event, total committed:3244449435, progress insts committed: 7889262, IPC: 0.394463
9194359383000: Event_144: system.switch_cpus progress event, total committed:3252336527, progress insts committed: 7887092, IPC: 0.394355
9204359383000: Event_144: system.switch_cpus progress event, total committed:3260207190, progress insts committed: 7870663, IPC: 0.393533
9214359383000: Event_144: system.switch_cpus progress event, total committed:3268097866, progress insts committed: 7890676, IPC: 0.394534
9224359383000: Event_144: system.switch_cpus progress event, total committed:3275976821, progress insts committed: 7878955, IPC: 0.393948
9234359383000: Event_144: system.switch_cpus progress event, total committed:3283863515, progress insts committed: 7886694, IPC: 0.394335
9244359383000: Event_144: system.switch_cpus progress event, total committed:3291750398, progress insts committed: 7886883, IPC: 0.394344
9254359383000: Event_144: system.switch_cpus progress event, total committed:3299621553, progress insts committed: 7871155, IPC: 0.393558
9264359383000: Event_144: system.switch_cpus progress event, total committed:3307509856, progress insts committed: 7888303, IPC: 0.394415
9274359383000: Event_144: system.switch_cpus progress event, total committed:3315384476, progress insts committed: 7874620, IPC: 0.393731
9284359383000: Event_144: system.switch_cpus progress event, total committed:3323272786, progress insts committed: 7888310, IPC: 0.394415
9294359383000: Event_144: system.switch_cpus progress event, total committed:3331159357, progress insts committed: 7886571, IPC: 0.394329
9304359383000: Event_144: system.switch_cpus progress event, total committed:3339033707, progress insts committed: 7874350, IPC: 0.393717
9314359383000: Event_144: system.switch_cpus progress event, total committed:3346925468, progress insts committed: 7891761, IPC: 0.394588
9324359383000: Event_144: system.switch_cpus progress event, total committed:3354798491, progress insts committed: 7873023, IPC: 0.393651
9334359383000: Event_144: system.switch_cpus progress event, total committed:3362680417, progress insts committed: 7881926, IPC: 0.394096
9344359383000: Event_144: system.switch_cpus progress event, total committed:3370561139, progress insts committed: 7880722, IPC: 0.394036
9354359383000: Event_144: system.switch_cpus progress event, total committed:3378439296, progress insts committed: 7878157, IPC: 0.393908
9364359383000: Event_144: system.switch_cpus progress event, total committed:3386326940, progress insts committed: 7887644, IPC: 0.394382
9374359383000: Event_144: system.switch_cpus progress event, total committed:3394206332, progress insts committed: 7879392, IPC: 00.39397
9384359383000: Event_144: system.switch_cpus progress event, total committed:3402090275, progress insts committed: 7883943, IPC: 0.394197
9394359383000: Event_144: system.switch_cpus progress event, total committed:3409978781, progress insts committed: 7888506, IPC: 0.394425
9404359383000: Event_144: system.switch_cpus progress event, total committed:3417853357, progress insts committed: 7874576, IPC: 0.393729
9414359383000: Event_144: system.switch_cpus progress event, total committed:3425749507, progress insts committed: 7896150, IPC: 0.394807
9424359383000: Event_144: system.switch_cpus progress event, total committed:3433630280, progress insts committed: 7880773, IPC: 0.394039
9434359383000: Event_144: system.switch_cpus progress event, total committed:3441508054, progress insts committed: 7877774, IPC: 0.393889
9444359383000: Event_144: system.switch_cpus progress event, total committed:3449391788, progress insts committed: 7883734, IPC: 0.394187
9454359383000: Event_144: system.switch_cpus progress event, total committed:3457270645, progress insts committed: 7878857, IPC: 0.393943
9464359383000: Event_144: system.switch_cpus progress event, total committed:3465162330, progress insts committed: 7891685, IPC: 0.394584
9474359383000: Event_144: system.switch_cpus progress event, total committed:3473045506, progress insts committed: 7883176, IPC: 0.394159
9484359383000: Event_144: system.switch_cpus progress event, total committed:3480923678, progress insts committed: 7878172, IPC: 0.393909
9494359383000: Event_144: system.switch_cpus progress event, total committed:3488806881, progress insts committed: 7883203, IPC: 00.39416
9504359383000: Event_144: system.switch_cpus progress event, total committed:3496680064, progress insts committed: 7873183, IPC: 0.393659
9514359383000: Event_144: system.switch_cpus progress event, total committed:3504564360, progress insts committed: 7884296, IPC: 0.394215
9524359383000: Event_144: system.switch_cpus progress event, total committed:3512442939, progress insts committed: 7878579, IPC: 0.393929
9534359383000: Event_144: system.switch_cpus progress event, total committed:3520323865, progress insts committed: 7880926, IPC: 0.394046
9544359383000: Event_144: system.switch_cpus progress event, total committed:3528205598, progress insts committed: 7881733, IPC: 0.394087
9554359383000: Event_144: system.switch_cpus progress event, total committed:3536087209, progress insts committed: 7881611, IPC: 0.394081
9564359383000: Event_144: system.switch_cpus progress event, total committed:3543981503, progress insts committed: 7894294, IPC: 0.394715
9574359383000: Event_144: system.switch_cpus progress event, total committed:3551860937, progress insts committed: 7879434, IPC: 0.393972
9584359383000: Event_144: system.switch_cpus progress event, total committed:3559744685, progress insts committed: 7883748, IPC: 0.394187
9594359383000: Event_144: system.switch_cpus progress event, total committed:3567633611, progress insts committed: 7888926, IPC: 0.394446
9604359383000: Event_144: system.switch_cpus progress event, total committed:3575502421, progress insts committed: 7868810, IPC: 0.393441
9614359383000: Event_144: system.switch_cpus progress event, total committed:3583393084, progress insts committed: 7890663, IPC: 0.394533
9624359383000: Event_144: system.switch_cpus progress event, total committed:3591271142, progress insts committed: 7878058, IPC: 0.393903
9634359383000: Event_144: system.switch_cpus progress event, total committed:3599148029, progress insts committed: 7876887, IPC: 0.393844
9644359383000: Event_144: system.switch_cpus progress event, total committed:3607037322, progress insts committed: 7889293, IPC: 0.394465
9654359383000: Event_144: system.switch_cpus progress event, total committed:3614909427, progress insts committed: 7872105, IPC: 0.393605
9664359383000: Event_144: system.switch_cpus progress event, total committed:3622801206, progress insts committed: 7891779, IPC: 0.394589
9674359383000: Event_144: system.switch_cpus progress event, total committed:3630679527, progress insts committed: 7878321, IPC: 0.393916
9684359383000: Event_144: system.switch_cpus progress event, total committed:3638561219, progress insts committed: 7881692, IPC: 0.394085
9694359383000: Event_144: system.switch_cpus progress event, total committed:3646446942, progress insts committed: 7885723, IPC: 0.394286
9704359383000: Event_144: system.switch_cpus progress event, total committed:3654328496, progress insts committed: 7881554, IPC: 0.394078
9714359383000: Event_144: system.switch_cpus progress event, total committed:3662216288, progress insts committed: 7887792, IPC: 00.39439
9724359383000: Event_144: system.switch_cpus progress event, total committed:3670091778, progress insts committed: 7875490, IPC: 0.393775
9734359383000: Event_144: system.switch_cpus progress event, total committed:3677972477, progress insts committed: 7880699, IPC: 0.394035
9744359383000: Event_144: system.switch_cpus progress event, total committed:3685861677, progress insts committed: 7889200, IPC: 00.39446
9754359383000: Event_144: system.switch_cpus progress event, total committed:3693741719, progress insts committed: 7880042, IPC: 0.394002
9764359383000: Event_144: system.switch_cpus progress event, total committed:3701634383, progress insts committed: 7892664, IPC: 0.394633
9774359383000: Event_144: system.switch_cpus progress event, total committed:3709508141, progress insts committed: 7873758, IPC: 0.393688
9784359383000: Event_144: system.switch_cpus progress event, total committed:3717385393, progress insts committed: 7877252, IPC: 0.393863
9794359383000: Event_144: system.switch_cpus progress event, total committed:3725276041, progress insts committed: 7890648, IPC: 0.394532
9804359383000: Event_144: system.switch_cpus progress event, total committed:3733152662, progress insts committed: 7876621, IPC: 0.393831
9814359383000: Event_144: system.switch_cpus progress event, total committed:3741041210, progress insts committed: 7888548, IPC: 0.394427
9824359383000: Event_144: system.switch_cpus progress event, total committed:3748929296, progress insts committed: 7888086, IPC: 0.394404
9834359383000: Event_144: system.switch_cpus progress event, total committed:3756804036, progress insts committed: 7874740, IPC: 0.393737
9844359383000: Event_144: system.switch_cpus progress event, total committed:3764691864, progress insts committed: 7887828, IPC: 0.394391
9854359383000: Event_144: system.switch_cpus progress event, total committed:3772567450, progress insts committed: 7875586, IPC: 0.393779
9864359383000: Event_144: system.switch_cpus progress event, total committed:3780451027, progress insts committed: 7883577, IPC: 0.394179
9874359383000: Event_144: system.switch_cpus progress event, total committed:3788333414, progress insts committed: 7882387, IPC: 0.394119
9884359383000: Event_144: system.switch_cpus progress event, total committed:3796209465, progress insts committed: 7876051, IPC: 0.393803
9894359383000: Event_144: system.switch_cpus progress event, total committed:3804098362, progress insts committed: 7888897, IPC: 0.394445
9904359383000: Event_144: system.switch_cpus progress event, total committed:3811971646, progress insts committed: 7873284, IPC: 0.393664
9914359383000: Event_144: system.switch_cpus progress event, total committed:3819857284, progress insts committed: 7885638, IPC: 0.394282
9924359383000: Event_144: system.switch_cpus progress event, total committed:3827736972, progress insts committed: 7879688, IPC: 0.393984
9934359383000: Event_144: system.switch_cpus progress event, total committed:3835618497, progress insts committed: 7881525, IPC: 0.394076
9944359383000: Event_144: system.switch_cpus progress event, total committed:3843503868, progress insts committed: 7885371, IPC: 0.394269
9954359383000: Event_144: system.switch_cpus progress event, total committed:3851378353, progress insts committed: 7874485, IPC: 0.393724
9964359383000: Event_144: system.switch_cpus progress event, total committed:3859262695, progress insts committed: 7884342, IPC: 0.394217
9974359383000: Event_144: system.switch_cpus progress event, total committed:3867146423, progress insts committed: 7883728, IPC: 0.394186
9984359383000: Event_144: system.switch_cpus progress event, total committed:3875028836, progress insts committed: 7882413, IPC: 0.394121
9994359383000: Event_144: system.switch_cpus progress event, total committed:3882921335, progress insts committed: 7892499, IPC: 0.394625
10004359383000: Event_144: system.switch_cpus progress event, total committed:3890794206, progress insts committed: 7872871, IPC: 0.393644
10014359383000: Event_144: system.switch_cpus progress event, total committed:3898677786, progress insts committed: 7883580, IPC: 0.394179
10024359383000: Event_144: system.switch_cpus progress event, total committed:3906558913, progress insts committed: 7881127, IPC: 0.394056
10034359383000: Event_144: system.switch_cpus progress event, total committed:3914441232, progress insts committed: 7882319, IPC: 0.394116
10044359383000: Event_144: system.switch_cpus progress event, total committed:3922335651, progress insts committed: 7894419, IPC: 0.394721
10054359383000: Event_144: system.switch_cpus progress event, total committed:3930212185, progress insts committed: 7876534, IPC: 0.393827
10064359383000: Event_144: system.switch_cpus progress event, total committed:3938100022, progress insts committed: 7887837, IPC: 0.394392
10074359383000: Event_144: system.switch_cpus progress event, total committed:3945977597, progress insts committed: 7877575, IPC: 0.393879
10084359383000: Event_144: system.switch_cpus progress event, total committed:3953855243, progress insts committed: 7877646, IPC: 0.393882
10094359383000: Event_144: system.switch_cpus progress event, total committed:3961749915, progress insts committed: 7894672, IPC: 0.394734
10104359383000: Event_144: system.switch_cpus progress event, total committed:3969628740, progress insts committed: 7878825, IPC: 0.393941
10114359383000: Event_144: system.switch_cpus progress event, total committed:3977518730, progress insts committed: 7889990, IPC: 000.3945
10124359383000: Event_144: system.switch_cpus progress event, total committed:3985395011, progress insts committed: 7876281, IPC: 0.393814
10134359383000: Event_144: system.switch_cpus progress event, total committed:3993270091, progress insts committed: 7875080, IPC: 0.393754
10144359383000: Event_144: system.switch_cpus progress event, total committed:4001161903, progress insts committed: 7891812, IPC: 0.394591
10154359383000: Event_144: system.switch_cpus progress event, total committed:4009031421, progress insts committed: 7869518, IPC: 0.393476
10164359383000: Event_144: system.switch_cpus progress event, total committed:4016921178, progress insts committed: 7889757, IPC: 0.394488
10174359383000: Event_144: system.switch_cpus progress event, total committed:4024798406, progress insts committed: 7877228, IPC: 0.393861
10184359383000: Event_144: system.switch_cpus progress event, total committed:4032677166, progress insts committed: 7878760, IPC: 0.393938
10194359383000: Event_144: system.switch_cpus progress event, total committed:4040563061, progress insts committed: 7885895, IPC: 0.394295
10204359383000: Event_144: system.switch_cpus progress event, total committed:4048440425, progress insts committed: 7877364, IPC: 0.393868
10214359383000: Event_144: system.switch_cpus progress event, total committed:4056324864, progress insts committed: 7884439, IPC: 0.394222
10224359383000: Event_144: system.switch_cpus progress event, total committed:4064209976, progress insts committed: 7885112, IPC: 0.394256
10234359383000: Event_144: system.switch_cpus progress event, total committed:4072087470, progress insts committed: 7877494, IPC: 0.393875
10244359383000: Event_144: system.switch_cpus progress event, total committed:4079974667, progress insts committed: 7887197, IPC: 00.39436
10254359383000: Event_144: system.switch_cpus progress event, total committed:4087851543, progress insts committed: 7876876, IPC: 0.393844
10264359383000: Event_144: system.switch_cpus progress event, total committed:4095740053, progress insts committed: 7888510, IPC: 0.394425
10274359383000: Event_144: system.switch_cpus progress event, total committed:4103623063, progress insts committed: 7883010, IPC: 0.394151
10284359383000: Event_144: system.switch_cpus progress event, total committed:4111502656, progress insts committed: 7879593, IPC: 00.39398
10294359383000: Event_144: system.switch_cpus progress event, total committed:4119390200, progress insts committed: 7887544, IPC: 0.394377
10304359383000: Event_144: system.switch_cpus progress event, total committed:4127270300, progress insts committed: 7880100, IPC: 0.394005
10314359383000: Event_144: system.switch_cpus progress event, total committed:4135152421, progress insts committed: 7882121, IPC: 0.394106
10324359383000: Event_144: system.switch_cpus progress event, total committed:4143028791, progress insts committed: 7876370, IPC: 0.393819
10334359383000: Event_144: system.switch_cpus progress event, total committed:4150908166, progress insts committed: 7879375, IPC: 0.393969
10344359383000: Event_144: system.switch_cpus progress event, total committed:4158799570, progress insts committed: 7891404, IPC: 00.39457
10354359383000: Event_144: system.switch_cpus progress event, total committed:4166675623, progress insts committed: 7876053, IPC: 0.393803
10364359383000: Event_144: system.switch_cpus progress event, total committed:4174563438, progress insts committed: 7887815, IPC: 0.394391
10374359383000: Event_144: system.switch_cpus progress event, total committed:4182441589, progress insts committed: 7878151, IPC: 0.393908
10384359383000: Event_144: system.switch_cpus progress event, total committed:4190314300, progress insts committed: 7872711, IPC: 0.393636
10394359383000: Event_144: system.switch_cpus progress event, total committed:4198208217, progress insts committed: 7893917, IPC: 0.394696
10404359383000: Event_144: system.switch_cpus progress event, total committed:4206079074, progress insts committed: 7870857, IPC: 0.393543
10414359383000: Event_144: system.switch_cpus progress event, total committed:4213970385, progress insts committed: 7891311, IPC: 0.394566
10424359383000: Event_144: system.switch_cpus progress event, total committed:4221849978, progress insts committed: 7879593, IPC: 00.39398
10434359383000: Event_144: system.switch_cpus progress event, total committed:4229730904, progress insts committed: 7880926, IPC: 0.394046
10444359383000: Event_144: system.switch_cpus progress event, total committed:4237620789, progress insts committed: 7889885, IPC: 0.394494
10454359383000: Event_144: system.switch_cpus progress event, total committed:4245501654, progress insts committed: 7880865, IPC: 0.394043
10464359383000: Event_144: system.switch_cpus progress event, total committed:4253386458, progress insts committed: 7884804, IPC: 00.39424
10474359383000: Event_144: system.switch_cpus progress event, total committed:4261267214, progress insts committed: 7880756, IPC: 0.394038
10484359383000: Event_144: system.switch_cpus progress event, total committed:4269143389, progress insts committed: 7876175, IPC: 0.393809
10494359383000: Event_144: system.switch_cpus progress event, total committed:4277036022, progress insts committed: 7892633, IPC: 0.394632
10504359383000: Event_144: system.switch_cpus progress event, total committed:4284914749, progress insts committed: 7878727, IPC: 0.393936
10514359383000: Event_144: system.switch_cpus progress event, total committed:4292802813, progress insts committed: 7888064, IPC: 0.394403
10524359383000: Event_144: system.switch_cpus progress event, total committed:4300676907, progress insts committed: 7874094, IPC: 0.393705
10534359383000: Event_144: system.switch_cpus progress event, total committed:4308550956, progress insts committed: 7874049, IPC: 0.393702
10544359383000: Event_144: system.switch_cpus progress event, total committed:4316441661, progress insts committed: 7890705, IPC: 0.394535
10554359383000: Event_144: system.switch_cpus progress event, total committed:4324320686, progress insts committed: 7879025, IPC: 0.393951
10564359383000: Event_144: system.switch_cpus progress event, total committed:4332210742, progress insts committed: 7890056, IPC: 0.394503
10574359383000: Event_144: system.switch_cpus progress event, total committed:4340098769, progress insts committed: 7888027, IPC: 0.394401
10584359383000: Event_144: system.switch_cpus progress event, total committed:4347969315, progress insts committed: 7870546, IPC: 0.393527
10594359383000: Event_144: system.switch_cpus progress event, total committed:4355858164, progress insts committed: 7888849, IPC: 0.394442
10604359383000: Event_144: system.switch_cpus progress event, total committed:4363735698, progress insts committed: 7877534, IPC: 0.393877
10614359383000: Event_144: system.switch_cpus progress event, total committed:4371614797, progress insts committed: 7879099, IPC: 0.393955
10624359383000: Event_144: system.switch_cpus progress event, total committed:4379503157, progress insts committed: 7888360, IPC: 0.394418
10634359383000: Event_144: system.switch_cpus progress event, total committed:4387375099, progress insts committed: 7871942, IPC: 0.393597
10644359383000: Event_144: system.switch_cpus progress event, total committed:4395265654, progress insts committed: 7890555, IPC: 0.394528
10654359383000: Event_144: system.switch_cpus progress event, total committed:4403137454, progress insts committed: 7871800, IPC: 00.39359
10664359383000: Event_144: system.switch_cpus progress event, total committed:4411026990, progress insts committed: 7889536, IPC: 0.394477
10674359383000: Event_144: system.switch_cpus progress event, total committed:4418909292, progress insts committed: 7882302, IPC: 0.394115
10684359383000: Event_144: system.switch_cpus progress event, total committed:4426788525, progress insts committed: 7879233, IPC: 0.393962
10694359383000: Event_144: system.switch_cpus progress event, total committed:4434678163, progress insts committed: 7889638, IPC: 0.394482
10704359383000: Event_144: system.switch_cpus progress event, total committed:4442555701, progress insts committed: 7877538, IPC: 0.393877
10714359383000: Event_144: system.switch_cpus progress event, total committed:4450436653, progress insts committed: 7880952, IPC: 0.394048
10724359383000: Event_144: system.switch_cpus progress event, total committed:4458320504, progress insts committed: 7883851, IPC: 0.394193
10734359383000: Event_144: system.switch_cpus progress event, total committed:4466199897, progress insts committed: 7879393, IPC: 00.39397
10744359383000: Event_144: system.switch_cpus progress event, total committed:4474093374, progress insts committed: 7893477, IPC: 0.394674
10754359383000: Event_144: system.switch_cpus progress event, total committed:4481968529, progress insts committed: 7875155, IPC: 0.393758
10764359383000: Event_144: system.switch_cpus progress event, total committed:4489847652, progress insts committed: 7879123, IPC: 0.393956
10774359383000: Event_144: system.switch_cpus progress event, total committed:4497731704, progress insts committed: 7884052, IPC: 0.394203
10784359383000: Event_144: system.switch_cpus progress event, total committed:4505605434, progress insts committed: 7873730, IPC: 0.393686
10794359383000: Event_144: system.switch_cpus progress event, total committed:4513496299, progress insts committed: 7890865, IPC: 0.394543
10804359383000: Event_144: system.switch_cpus progress event, total committed:4521376837, progress insts committed: 7880538, IPC: 0.394027
10814359383000: Event_144: system.switch_cpus progress event, total committed:4529255884, progress insts committed: 7879047, IPC: 0.393952
10824359383000: Event_144: system.switch_cpus progress event, total committed:4537138107, progress insts committed: 7882223, IPC: 0.394111
10834359383000: Event_144: system.switch_cpus progress event, total committed:4545014381, progress insts committed: 7876274, IPC: 0.393814
10844359383000: Event_144: system.switch_cpus progress event, total committed:4552899404, progress insts committed: 7885023, IPC: 0.394251
10854359383000: Event_144: system.switch_cpus progress event, total committed:4560778597, progress insts committed: 7879193, IPC: 00.39396
10864359383000: Event_144: system.switch_cpus progress event, total committed:4568664402, progress insts committed: 7885805, IPC: 00.39429
10874359383000: Event_144: system.switch_cpus progress event, total committed:4576542823, progress insts committed: 7878421, IPC: 0.393921
10884359383000: Event_144: system.switch_cpus progress event, total committed:4584415790, progress insts committed: 7872967, IPC: 0.393648
10894359383000: Event_144: system.switch_cpus progress event, total committed:4592309911, progress insts committed: 7894121, IPC: 0.394706
10904359383000: Event_144: system.switch_cpus progress event, total committed:4600181846, progress insts committed: 7871935, IPC: 0.393597
10914359383000: Event_144: system.switch_cpus progress event, total committed:4608066203, progress insts committed: 7884357, IPC: 0.394218
10924359383000: Event_144: system.switch_cpus progress event, total committed:4615948896, progress insts committed: 7882693, IPC: 0.394135
10934359383000: Event_144: system.switch_cpus progress event, total committed:4623829514, progress insts committed: 7880618, IPC: 0.394031
10944359383000: Event_144: system.switch_cpus progress event, total committed:4631717572, progress insts committed: 7888058, IPC: 0.394403
10954359383000: Event_144: system.switch_cpus progress event, total committed:4639597038, progress insts committed: 7879466, IPC: 0.393973
10964359383000: Event_144: system.switch_cpus progress event, total committed:4647478677, progress insts committed: 7881639, IPC: 0.394082
10974359383000: Event_144: system.switch_cpus progress event, total committed:4655368820, progress insts committed: 7890143, IPC: 0.394507
10984359383000: Event_144: system.switch_cpus progress event, total committed:4663244093, progress insts committed: 7875273, IPC: 0.393764
10994359383000: Event_144: system.switch_cpus progress event, total committed:4671131249, progress insts committed: 7887156, IPC: 0.394358
11004359383000: Event_144: system.switch_cpus progress event, total committed:4679005182, progress insts committed: 7873933, IPC: 0.393697
11014359383000: Event_144: system.switch_cpus progress event, total committed:4686891775, progress insts committed: 7886593, IPC: 00.39433
11024359383000: Event_144: system.switch_cpus progress event, total committed:4694780096, progress insts committed: 7888321, IPC: 0.394416
11034359383000: Event_144: system.switch_cpus progress event, total committed:4702660588, progress insts committed: 7880492, IPC: 0.394025
11044359383000: Event_144: system.switch_cpus progress event, total committed:4710544371, progress insts committed: 7883783, IPC: 0.394189
11054359383000: Event_144: system.switch_cpus progress event, total committed:4718423306, progress insts committed: 7878935, IPC: 0.393947
11064359383000: Event_144: system.switch_cpus progress event, total committed:4726299547, progress insts committed: 7876241, IPC: 0.393812
11074359383000: Event_144: system.switch_cpus progress event, total committed:4734185010, progress insts committed: 7885463, IPC: 0.394273
11084359383000: Event_144: system.switch_cpus progress event, total committed:4742064707, progress insts committed: 7879697, IPC: 0.393985
11094359383000: Event_144: system.switch_cpus progress event, total committed:4749955155, progress insts committed: 7890448, IPC: 0.394522
11104359383000: Event_144: system.switch_cpus progress event, total committed:4757828768, progress insts committed: 7873613, IPC: 0.393681
11114359383000: Event_144: system.switch_cpus progress event, total committed:4765712662, progress insts committed: 7883894, IPC: 0.394195
11124359383000: Event_144: system.switch_cpus progress event, total committed:4773603182, progress insts committed: 7890520, IPC: 0.394526
11134359383000: Event_144: system.switch_cpus progress event, total committed:4781471680, progress insts committed: 7868498, IPC: 0.393425
11144359383000: Event_144: system.switch_cpus progress event, total committed:4789365105, progress insts committed: 7893425, IPC: 0.394671
11154359383000: Event_144: system.switch_cpus progress event, total committed:4797246783, progress insts committed: 7881678, IPC: 0.394084
11164359383000: Event_144: system.switch_cpus progress event, total committed:4805127634, progress insts committed: 7880851, IPC: 0.394043
11174359383000: Event_144: system.switch_cpus progress event, total committed:4813012508, progress insts committed: 7884874, IPC: 0.394244
11184359383000: Event_144: system.switch_cpus progress event, total committed:4820888260, progress insts committed: 7875752, IPC: 0.393788
11194359383000: Event_144: system.switch_cpus progress event, total committed:4828780302, progress insts committed: 7892042, IPC: 0.394602
11204359383000: Event_144: system.switch_cpus progress event, total committed:4836659571, progress insts committed: 7879269, IPC: 0.393963
11214359383000: Event_144: system.switch_cpus progress event, total committed:4844540178, progress insts committed: 7880607, IPC: 00.39403
11224359383000: Event_144: system.switch_cpus progress event, total committed:4852424938, progress insts committed: 7884760, IPC: 0.394238
11234359383000: Event_144: system.switch_cpus progress event, total committed:4860297205, progress insts committed: 7872267, IPC: 0.393613
11244359383000: Event_144: system.switch_cpus progress event, total committed:4868188512, progress insts committed: 7891307, IPC: 0.394565
11254359383000: Event_144: system.switch_cpus progress event, total committed:4876072980, progress insts committed: 7884468, IPC: 0.394223
11264359383000: Event_144: system.switch_cpus progress event, total committed:4883954619, progress insts committed: 7881639, IPC: 0.394082
11274359383000: Event_144: system.switch_cpus progress event, total committed:4891833415, progress insts committed: 7878796, IPC: 00.39394
11284359383000: Event_144: system.switch_cpus progress event, total committed:4899713696, progress insts committed: 7880281, IPC: 0.394014
11294359383000: Event_144: system.switch_cpus progress event, total committed:4907601555, progress insts committed: 7887859, IPC: 0.394393
11304359383000: Event_144: system.switch_cpus progress event, total committed:4915200920, progress insts committed: 7599365, IPC: 0.379968
11314359383000: Event_144: system.switch_cpus progress event, total committed:4921292304, progress insts committed: 6091384, IPC: 0.304569
11324359383000: Event_144: system.switch_cpus progress event, total committed:4927146181, progress insts committed: 5853877, IPC: 0.292694
11334359383000: Event_144: system.switch_cpus progress event, total committed:4933000662, progress insts committed: 5854481, IPC: 0.292724
11344359383000: Event_144: system.switch_cpus progress event, total committed:4938858177, progress insts committed: 5857515, IPC: 0.292876
11354359383000: Event_144: system.switch_cpus progress event, total committed:4944715640, progress insts committed: 5857463, IPC: 0.292873
11364359383000: Event_144: system.switch_cpus progress event, total committed:4950570057, progress insts committed: 5854417, IPC: 0.292721
11374359383000: Event_144: system.switch_cpus progress event, total committed:4956425918, progress insts committed: 5855861, IPC: 0.292793
11384359383000: Event_144: system.switch_cpus progress event, total committed:4962279805, progress insts committed: 5853887, IPC: 0.292694
11394359383000: Event_144: system.switch_cpus progress event, total committed:4968136133, progress insts committed: 5856328, IPC: 0.292816
11404359383000: Event_144: system.switch_cpus progress event, total committed:4973994330, progress insts committed: 5858197, IPC: 00.29291
11414359383000: Event_144: system.switch_cpus progress event, total committed:4979851360, progress insts committed: 5857030, IPC: 0.292851
11424359383000: Event_144: system.switch_cpus progress event, total committed:4985711664, progress insts committed: 5860304, IPC: 0.293015
11434359383000: Event_144: system.switch_cpus progress event, total committed:4991565271, progress insts committed: 5853607, IPC: 00.29268
11444359383000: Event_144: system.switch_cpus progress event, total committed:4997423878, progress insts committed: 5858607, IPC: 00.29293
11454359383000: Event_144: system.switch_cpus progress event, total committed:5003280316, progress insts committed: 5856438, IPC: 0.292822
11464359383000: Event_144: system.switch_cpus progress event, total committed:5009137420, progress insts committed: 5857104, IPC: 0.292855
11474359383000: Event_144: system.switch_cpus progress event, total committed:5014968311, progress insts committed: 5830891, IPC: 0.291545
11484359383000: Event_144: system.switch_cpus progress event, total committed:5020824172, progress insts committed: 5855861, IPC: 0.292793
11494359383000: Event_144: system.switch_cpus progress event, total committed:5026678698, progress insts committed: 5854526, IPC: 0.292726
11504359383000: Event_144: system.switch_cpus progress event, total committed:5032534131, progress insts committed: 5855433, IPC: 0.292772
11514359383000: Event_144: system.switch_cpus progress event, total committed:5038391200, progress insts committed: 5857069, IPC: 0.292853
11524359383000: Event_144: system.switch_cpus progress event, total committed:5044244248, progress insts committed: 5853048, IPC: 0.292652
11534359383000: Event_144: system.switch_cpus progress event, total committed:5050100260, progress insts committed: 5856012, IPC: 0.292801
11544359383000: Event_144: system.switch_cpus progress event, total committed:5055956770, progress insts committed: 5856510, IPC: 0.292826
11554359383000: Event_144: system.switch_cpus progress event, total committed:5061814644, progress insts committed: 5857874, IPC: 0.292894
11564359383000: Event_144: system.switch_cpus progress event, total committed:5067667839, progress insts committed: 5853195, IPC: 00.29266
11574359383000: Event_144: system.switch_cpus progress event, total committed:5073526483, progress insts committed: 5858644, IPC: 0.292932
11584359383000: Event_144: system.switch_cpus progress event, total committed:5079382305, progress insts committed: 5855822, IPC: 0.292791
[...]
16814359383000: Event_144: system.switch_cpus progress event, total committed:9040726390, progress insts committed: 7900828, IPC: 0.395041
16824359383000: Event_144: system.switch_cpus progress event, total committed:9048617502, progress insts committed: 7891112, IPC: 0.394556
16834359383000: Event_144: system.switch_cpus progress event, total committed:9056509311, progress insts committed: 7891809, IPC: 00.39459
16844359383000: Event_144: system.switch_cpus progress event, total committed:9064405622, progress insts committed: 7896311, IPC: 0.394816
16854359383000: Event_144: system.switch_cpus progress event, total committed:9072299671, progress insts committed: 7894049, IPC: 0.394702
16864359383000: Event_144: system.switch_cpus progress event, total committed:9080197296, progress insts committed: 7897625, IPC: 0.394881
16874359383000: Event_144: system.switch_cpus progress event, total committed:9088084685, progress insts committed: 7887389, IPC: 0.394369
16884359383000: Event_144: system.switch_cpus progress event, total committed:9095972818, progress insts committed: 7888133, IPC: 0.394407
16894359383000: Event_144: system.switch_cpus progress event, total committed:9103867111, progress insts committed: 7894293, IPC: 0.394715
16904359383000: Event_144: system.switch_cpus progress event, total committed:9111763885, progress insts committed: 7896774, IPC: 0.394839
16914359383000: Event_144: system.switch_cpus progress event, total committed:9119652882, progress insts committed: 7888997, IPC: 00.39445
16924359383000: Event_144: system.switch_cpus progress event, total committed:9127546867, progress insts committed: 7893985, IPC: 0.394699
16934359383000: Event_144: system.switch_cpus progress event, total committed:9135435871, progress insts committed: 7889004, IPC: 00.39445
16944359383000: Event_144: system.switch_cpus progress event, total committed:9143330226, progress insts committed: 7894355, IPC: 0.394718
16954359383000: Event_144: system.switch_cpus progress event, total committed:9151224408, progress insts committed: 7894182, IPC: 0.394709
16964359383000: Event_144: system.switch_cpus progress event, total committed:9159117173, progress insts committed: 7892765, IPC: 0.394638
16974359383000: Event_144: system.switch_cpus progress event, total committed:9167010363, progress insts committed: 7893190, IPC: 0.394659
16984359383000: Event_144: system.switch_cpus progress event, total committed:9174899481, progress insts committed: 7889118, IPC: 0.394456
16994359383000: Event_144: system.switch_cpus progress event, total committed:9182790542, progress insts committed: 7891061, IPC: 0.394553
17004359383000: Event_144: system.switch_cpus progress event, total committed:9190686073, progress insts committed: 7895531, IPC: 0.394777
17014359383000: Event_144: system.switch_cpus progress event, total committed:9198583669, progress insts committed: 7897596, IPC: 00.39488
17024359383000: Event_144: system.switch_cpus progress event, total committed:9206474641, progress insts committed: 7890972, IPC: 0.394549
17034359383000: Event_144: system.switch_cpus progress event, total committed:9214368653, progress insts committed: 7894012, IPC: 0.394701
17044359383000: Event_144: system.switch_cpus progress event, total committed:9222261188, progress insts committed: 7892535, IPC: 0.394627
17054359383000: Event_144: system.switch_cpus progress event, total committed:9230151199, progress insts committed: 7890011, IPC: 0.394501
17064359383000: Event_144: system.switch_cpus progress event, total committed:9238049534, progress insts committed: 7898335, IPC: 0.394917
17074359383000: Event_144: system.switch_cpus progress event, total committed:9245937353, progress insts committed: 7887819, IPC: 0.394391
17084359383000: Event_144: system.switch_cpus progress event, total committed:9253825989, progress insts committed: 7888636, IPC: 0.394432
17094359383000: Event_144: system.switch_cpus progress event, total committed:9261723543, progress insts committed: 7897554, IPC: 0.394878
17104359383000: Event_144: system.switch_cpus progress event, total committed:9269613531, progress insts committed: 7889988, IPC: 0.394499
17114359383000: Event_144: system.switch_cpus progress event, total committed:9277502127, progress insts committed: 7888596, IPC: 00.39443
17124359383000: Event_144: system.switch_cpus progress event, total committed:9285387728, progress insts committed: 7885601, IPC: 00.39428
17134359383000: Event_144: system.switch_cpus progress event, total committed:9293280038, progress insts committed: 7892310, IPC: 0.394616
17144359383000: Event_144: system.switch_cpus progress event, total committed:9301168628, progress insts committed: 7888590, IPC: 0.394429
17154359383000: Event_144: system.switch_cpus progress event, total committed:9309064853, progress insts committed: 7896225, IPC: 0.394811
17164359383000: Event_144: system.switch_cpus progress event, total committed:9316946338, progress insts committed: 7881485, IPC: 0.394074
17174359383000: Event_144: system.switch_cpus progress event, total committed:9324837833, progress insts committed: 7891495, IPC: 0.394575
17184359383000: Event_144: system.switch_cpus progress event, total committed:9332730645, progress insts committed: 7892812, IPC: 0.394641
17194359383000: Event_144: system.switch_cpus progress event, total committed:9340622659, progress insts committed: 7892014, IPC: 0.394601
17204359383000: Event_144: system.switch_cpus progress event, total committed:9348512612, progress insts committed: 7889953, IPC: 0.394498
17214359383000: Event_144: system.switch_cpus progress event, total committed:9356404707, progress insts committed: 7892095, IPC: 0.394605
17224359383000: Event_144: system.switch_cpus progress event, total committed:9364293335, progress insts committed: 7888628, IPC: 0.394431
17234359383000: Event_144: system.switch_cpus progress event, total committed:9372188772, progress insts committed: 7895437, IPC: 0.394772
17244359383000: Event_144: system.switch_cpus progress event, total committed:9380080825, progress insts committed: 7892053, IPC: 0.394603
17254359383000: Event_144: system.switch_cpus progress event, total committed:9387969317, progress insts committed: 7888492, IPC: 0.394425
17264359383000: Event_144: system.switch_cpus progress event, total committed:9395859425, progress insts committed: 7890108, IPC: 0.394505
17274359383000: Event_144: system.switch_cpus progress event, total committed:9403750775, progress insts committed: 7891350, IPC: 0.394568
17284359383000: Event_144: system.switch_cpus progress event, total committed:9411638718, progress insts committed: 7887943, IPC: 0.394397
17294359383000: Event_144: system.switch_cpus progress event, total committed:9419529536, progress insts committed: 7890818, IPC: 0.394541
17304359383000: Event_144: system.switch_cpus progress event, total committed:9427424851, progress insts committed: 7895315, IPC: 0.394766
17314359383000: Event_144: system.switch_cpus progress event, total committed:9435315587, progress insts committed: 7890736, IPC: 0.394537
17324359383000: Event_144: system.switch_cpus progress event, total committed:9443216573, progress insts committed: 7900986, IPC: 0.395049
17334359383000: Event_144: system.switch_cpus progress event, total committed:9451112832, progress insts committed: 7896259, IPC: 0.394813
17344359383000: Event_144: system.switch_cpus progress event, total committed:9459004822, progress insts committed: 7891990, IPC: 0.394599
17354359383000: Event_144: system.switch_cpus progress event, total committed:9466895609, progress insts committed: 7890787, IPC: 0.394539
17364359383000: Event_144: system.switch_cpus progress event, total committed:9474787089, progress insts committed: 7891480, IPC: 0.394574
17374359383000: Event_144: system.switch_cpus progress event, total committed:9482674669, progress insts committed: 7887580, IPC: 0.394379
17384359383000: Event_144: system.switch_cpus progress event, total committed:9490573168, progress insts committed: 7898499, IPC: 0.394925
17394359383000: Event_144: system.switch_cpus progress event, total committed:9498464462, progress insts committed: 7891294, IPC: 0.394565
17404359383000: Event_144: system.switch_cpus progress event, total committed:9506360667, progress insts committed: 7896205, IPC: 00.39481
17414359383000: Event_144: system.switch_cpus progress event, total committed:9514251670, progress insts committed: 7891003, IPC: 00.39455
17424359383000: Event_144: system.switch_cpus progress event, total committed:9522146617, progress insts committed: 7894947, IPC: 0.394747
17434359383000: Event_144: system.switch_cpus progress event, total committed:9530039472, progress insts committed: 7892855, IPC: 0.394643
17444359383000: Event_144: system.switch_cpus progress event, total committed:9537935869, progress insts committed: 7896397, IPC: 00.39482
17454359383000: Event_144: system.switch_cpus progress event, total committed:9545820901, progress insts committed: 7885032, IPC: 0.394252
17464359383000: Event_144: system.switch_cpus progress event, total committed:9553709612, progress insts committed: 7888711, IPC: 0.394436
17474359383000: Event_144: system.switch_cpus progress event, total committed:9561598822, progress insts committed: 7889210, IPC: 00.39446
17484359383000: Event_144: system.switch_cpus progress event, total committed:9569489538, progress insts committed: 7890716, IPC: 0.394536
17494359383000: Event_144: system.switch_cpus progress event, total committed:9577378049, progress insts committed: 7888511, IPC: 0.394426
17504359383000: Event_144: system.switch_cpus progress event, total committed:9585276341, progress insts committed: 7898292, IPC: 0.394915
17514359383000: Event_144: system.switch_cpus progress event, total committed:9593167017, progress insts committed: 7890676, IPC: 0.394534
17524359383000: Event_144: system.switch_cpus progress event, total committed:9601058288, progress insts committed: 7891271, IPC: 0.394564
17534359383000: Event_144: system.switch_cpus progress event, total committed:9608949047, progress insts committed: 7890759, IPC: 0.394538
17544359383000: Event_144: system.switch_cpus progress event, total committed:9616836237, progress insts committed: 7887190, IPC: 0.394359
17554359383000: Event_144: system.switch_cpus progress event, total committed:9624729018, progress insts committed: 7892781, IPC: 0.394639
17564359383000: Event_144: system.switch_cpus progress event, total committed:9632618374, progress insts committed: 7889356, IPC: 0.394468
17574359383000: Event_144: system.switch_cpus progress event, total committed:9640510380, progress insts committed: 7892006, IPC: 000.3946
17584359383000: Event_144: system.switch_cpus progress event, total committed:9648401789, progress insts committed: 7891409, IPC: 00.39457
17594359383000: Event_144: system.switch_cpus progress event, total committed:9656296530, progress insts committed: 7894741, IPC: 0.394737
17604359383000: Event_144: system.switch_cpus progress event, total committed:9664187283, progress insts committed: 7890753, IPC: 0.394538
17614359383000: Event_144: system.switch_cpus progress event, total committed:9672083381, progress insts committed: 7896098, IPC: 0.394805
17624359383000: Event_144: system.switch_cpus progress event, total committed:9679973414, progress insts committed: 7890033, IPC: 0.394502
17634359383000: Event_144: system.switch_cpus progress event, total committed:9687866148, progress insts committed: 7892734, IPC: 0.394637
17644359383000: Event_144: system.switch_cpus progress event, total committed:9695758510, progress insts committed: 7892362, IPC: 0.394618
17654359383000: Event_144: system.switch_cpus progress event, total committed:9703655684, progress insts committed: 7897174, IPC: 0.394859
17664359383000: Event_144: system.switch_cpus progress event, total committed:9711548533, progress insts committed: 7892849, IPC: 0.394642
17674359383000: Event_144: system.switch_cpus progress event, total committed:9719444232, progress insts committed: 7895699, IPC: 0.394785
17684359383000: Event_144: system.switch_cpus progress event, total committed:9727329216, progress insts committed: 7884984, IPC: 0.394249
17694359383000: Event_144: system.switch_cpus progress event, total committed:9735221303, progress insts committed: 7892087, IPC: 0.394604
17704359383000: Event_144: system.switch_cpus progress event, total committed:9743113258, progress insts committed: 7891955, IPC: 0.394598
17714359383000: Event_144: system.switch_cpus progress event, total committed:9751008161, progress insts committed: 7894903, IPC: 0.394745
17724359383000: Event_144: system.switch_cpus progress event, total committed:9758899359, progress insts committed: 7891198, IPC: 00.39456
17734359383000: Event_144: system.switch_cpus progress event, total committed:9766788728, progress insts committed: 7889369, IPC: 0.394468
17744359383000: Event_144: system.switch_cpus progress event, total committed:9774682234, progress insts committed: 7893506, IPC: 0.394675
17754359383000: Event_144: system.switch_cpus progress event, total committed:9782576177, progress insts committed: 7893943, IPC: 0.394697
17764359383000: Event_144: system.switch_cpus progress event, total committed:9790474704, progress insts committed: 7898527, IPC: 0.394926
17774359383000: Event_144: system.switch_cpus progress event, total committed:9798358440, progress insts committed: 7883736, IPC: 0.394187
17784359383000: Event_144: system.switch_cpus progress event, total committed:9806254640, progress insts committed: 7896200, IPC: 00.39481
17794359383000: Event_144: system.switch_cpus progress event, total committed:9814146626, progress insts committed: 7891986, IPC: 0.394599
17804359383000: Event_144: system.switch_cpus progress event, total committed:9822040147, progress insts committed: 7893521, IPC: 0.394676
17814359383000: Event_144: system.switch_cpus progress event, total committed:9829931495, progress insts committed: 7891348, IPC: 0.394567
17824359383000: Event_144: system.switch_cpus progress event, total committed:9837822901, progress insts committed: 7891406, IPC: 00.39457
17834359383000: Event_144: system.switch_cpus progress event, total committed:9845714208, progress insts committed: 7891307, IPC: 0.394565
17844359383000: Event_144: system.switch_cpus progress event, total committed:9853606760, progress insts committed: 7892552, IPC: 0.394628
17854359383000: Event_144: system.switch_cpus progress event, total committed:9861499007, progress insts committed: 7892247, IPC: 0.394612
17864359383000: Event_144: system.switch_cpus progress event, total committed:9869390376, progress insts committed: 7891369, IPC: 0.394568
17874359383000: Event_144: system.switch_cpus progress event, total committed:9877280333, progress insts committed: 7889957, IPC: 0.394498
17884359383000: Event_144: system.switch_cpus progress event, total committed:9885173981, progress insts committed: 7893648, IPC: 0.394682
17894359383000: Event_144: system.switch_cpus progress event, total committed:9893066637, progress insts committed: 7892656, IPC: 0.394633
17904359383000: Event_144: system.switch_cpus progress event, total committed:9900956506, progress insts committed: 7889869, IPC: 0.394493
17914359383000: Event_144: system.switch_cpus progress event, total committed:9908849921, progress insts committed: 7893415, IPC: 0.394671
17924359383000: Event_144: system.switch_cpus progress event, total committed:9916748307, progress insts committed: 7898386, IPC: 0.394919
17934359383000: Event_144: system.switch_cpus progress event, total committed:9924633354, progress insts committed: 7885047, IPC: 0.394252
17944359383000: Event_144: system.switch_cpus progress event, total committed:9932530176, progress insts committed: 7896822, IPC: 0.394841
17954359383000: Event_144: system.switch_cpus progress event, total committed:9940418716, progress insts committed: 7888540, IPC: 0.394427
17964359383000: Event_144: system.switch_cpus progress event, total committed:9948309420, progress insts committed: 7890704, IPC: 0.394535
17974359383000: Event_144: system.switch_cpus progress event, total committed:9956204839, progress insts committed: 7895419, IPC: 0.394771
17984359383000: Event_144: system.switch_cpus progress event, total committed:9964097880, progress insts committed: 7893041, IPC: 0.394652
17994359383000: Event_144: system.switch_cpus progress event, total committed:9971993337, progress insts committed: 7895457, IPC: 0.394773
18004359383000: Event_144: system.switch_cpus progress event, total committed:9979886799, progress insts committed: 7893462, IPC: 0.394673
18014359383000: Event_144: system.switch_cpus progress event, total committed:9987778136, progress insts committed: 7891337, IPC: 0.394567
18024359383000: Event_144: system.switch_cpus progress event, total committed:9995666738, progress insts committed: 7888602, IPC: 00.39443
18034359383000: Event_144: system.switch_cpus progress event, total committed:10003557874, progress insts committed: 7891136, IPC: 0.394557
18044359383000: Event_144: system.switch_cpus progress event, total committed:10011446869, progress insts committed: 7888995, IPC: 00.39445
18054359383000: Event_144: system.switch_cpus progress event, total committed:10019340847, progress insts committed: 7893978, IPC: 0.394699
18064359383000: Event_144: system.switch_cpus progress event, total committed:10027227187, progress insts committed: 7886340, IPC: 0.394317
18074359383000: Event_144: system.switch_cpus progress event, total committed:10035121394, progress insts committed: 7894207, IPC: 00.39471
18084359383000: Event_144: system.switch_cpus progress event, total committed:10043007977, progress insts committed: 7886583, IPC: 0.394329
18094359383000: Event_144: system.switch_cpus progress event, total committed:10050898844, progress insts committed: 7890867, IPC: 0.394543
18104359383000: Event_144: system.switch_cpus progress event, total committed:10058792789, progress insts committed: 7893945, IPC: 0.394697
18114359383000: Event_144: system.switch_cpus progress event, total committed:10066689722, progress insts committed: 7896933, IPC: 0.394847
18124359383000: Event_144: system.switch_cpus progress event, total committed:10074580410, progress insts committed: 7890688, IPC: 0.394534
18134359383000: Event_144: system.switch_cpus progress event, total committed:10082477305, progress insts committed: 7896895, IPC: 0.394845
18144359383000: Event_144: system.switch_cpus progress event, total committed:10090369399, progress insts committed: 7892094, IPC: 0.394605
18154359383000: Event_144: system.switch_cpus progress event, total committed:10098262821, progress insts committed: 7893422, IPC: 0.394671
18164359383000: Event_144: system.switch_cpus progress event, total committed:10106151519, progress insts committed: 7888698, IPC: 0.394435
18174359383000: Event_144: system.switch_cpus progress event, total committed:10114047551, progress insts committed: 7896032, IPC: 0.394802
18184359383000: Event_144: system.switch_cpus progress event, total committed:10121940062, progress insts committed: 7892511, IPC: 0.394626
18194359383000: Event_144: system.switch_cpus progress event, total committed:10129835372, progress insts committed: 7895310, IPC: 0.394765
18204359383000: Event_144: system.switch_cpus progress event, total committed:10137728906, progress insts committed: 7893534, IPC: 0.394677
18214359383000: Event_144: system.switch_cpus progress event, total committed:10145623902, progress insts committed: 7894996, IPC: 00.39475
18224359383000: Event_144: system.switch_cpus progress event, total committed:10153522047, progress insts committed: 7898145, IPC: 0.394907
18234359383000: Event_144: system.switch_cpus progress event, total committed:10161416589, progress insts committed: 7894542, IPC: 0.394727
Exiting @ tick 18235715974500 because a thread reached the max instruction count
