
---------- Begin Simulation Statistics ----------
final_tick                               7335903699000                       # Number of ticks from beginning of simulation (restored from checkpoints and never reset)
host_inst_rate                                 127208                       # Simulator instruction rate (inst/s)
host_mem_usage                               18753308                       # Number of bytes of host memory used
host_op_rate                                   132041                       # Simulator op (including micro ops) rate (op/s)
host_seconds                                 15722.24                       # Real time elapsed on the host
host_tick_rate                               84691748                       # Simulator tick rate (ticks/s)
sim_freq                                 1000000000000                       # Frequency of simulated ticks
sim_insts                                  2000000021                       # Number of instructions simulated
sim_ops                                    2075976409                       # Number of ops (including micro ops) simulated
sim_seconds                                  1.331544                       # Number of seconds simulated
sim_ticks                                1331544314500                       # Number of ticks simulated
system.cpu.committedInsts                          20                       # Number of instructions committed
system.cpu.committedOps                            20                       # Number of ops (including micro ops) committed
system.cpu.dcache.MSHRs.leapFrogMisses        3925558                       # number of false blocks from MSHR
system.cpu.icache.MSHRs.leapFrogMisses              0                       # number of false blocks from MSHR
system.cpu.idle_fraction                            0                       # Percentage of idle cycles
system.cpu.not_idle_fraction                        1                       # Percentage of non-idle cycles
system.cpu.numCycles                               20                       # number of cpu cycles simulated
system.cpu.numWorkItemsCompleted                    0                       # number of work items this cpu completed
system.cpu.numWorkItemsStarted                      0                       # number of work items this cpu started
system.cpu.num_busy_cycles                         20                       # Number of busy cycles
system.cpu.num_conditional_control_insts            0                       # number of instructions that are conditional controls
system.cpu.num_fp_alu_accesses                      0                       # Number of float alu accesses
system.cpu.num_fp_insts                             0                       # number of float instructions
system.cpu.num_fp_register_reads                    0                       # number of times the floating registers were read
system.cpu.num_fp_register_writes                   0                       # number of times the floating registers were written
system.cpu.num_func_calls                           0                       # number of times a function call or return occured
system.cpu.num_idle_cycles                          0                       # Number of idle cycles
system.cpu.num_int_alu_accesses                     7                       # Number of integer alu accesses
system.cpu.num_int_insts                            7                       # number of integer instructions
system.cpu.num_int_register_reads                  56                       # number of times the integer registers were read
system.cpu.num_int_register_writes                 16                       # number of times the integer registers were written
system.cpu.num_load_insts                           5                       # Number of load instructions
system.cpu.num_mem_refs                             5                       # number of memory refs
system.cpu.num_store_insts                          0                       # Number of store instructions
system.cpu.num_vec_alu_accesses                    17                       # Number of vector alu accesses
system.cpu.num_vec_insts                           17                       # number of vector instructions
system.cpu.num_vec_register_reads                  26                       # number of times the vector registers were read
system.cpu.num_vec_register_writes                 17                       # number of times the vector registers were written
system.cpu.op_class::No_OpClass                     0      0.00%      0.00% # Class of executed instruction
system.cpu.op_class::IntAlu                         2     10.00%     10.00% # Class of executed instruction
system.cpu.op_class::IntMult                        0      0.00%     10.00% # Class of executed instruction
system.cpu.op_class::IntDiv                         0      0.00%     10.00% # Class of executed instruction
system.cpu.op_class::FloatAdd                       7     35.00%     45.00% # Class of executed instruction
system.cpu.op_class::FloatCmp                       0      0.00%     45.00% # Class of executed instruction
system.cpu.op_class::FloatCvt                       0      0.00%     45.00% # Class of executed instruction
system.cpu.op_class::FloatMult                      0      0.00%     45.00% # Class of executed instruction
system.cpu.op_class::FloatMultAcc                   0      0.00%     45.00% # Class of executed instruction
system.cpu.op_class::FloatDiv                       6     30.00%     75.00% # Class of executed instruction
system.cpu.op_class::FloatMisc                      0      0.00%     75.00% # Class of executed instruction
system.cpu.op_class::FloatSqrt                      0      0.00%     75.00% # Class of executed instruction
system.cpu.op_class::SimdAdd                        0      0.00%     75.00% # Class of executed instruction
system.cpu.op_class::SimdAddAcc                     0      0.00%     75.00% # Class of executed instruction
system.cpu.op_class::SimdAlu                        0      0.00%     75.00% # Class of executed instruction
system.cpu.op_class::SimdCmp                        0      0.00%     75.00% # Class of executed instruction
system.cpu.op_class::SimdCvt                        0      0.00%     75.00% # Class of executed instruction
system.cpu.op_class::SimdMisc                       0      0.00%     75.00% # Class of executed instruction
system.cpu.op_class::SimdMult                       0      0.00%     75.00% # Class of executed instruction
system.cpu.op_class::SimdMultAcc                    0      0.00%     75.00% # Class of executed instruction
system.cpu.op_class::SimdShift                      0      0.00%     75.00% # Class of executed instruction
system.cpu.op_class::SimdShiftAcc                   0      0.00%     75.00% # Class of executed instruction
system.cpu.op_class::SimdDiv                        0      0.00%     75.00% # Class of executed instruction
system.cpu.op_class::SimdSqrt                       0      0.00%     75.00% # Class of executed instruction
system.cpu.op_class::SimdFloatAdd                   0      0.00%     75.00% # Class of executed instruction
system.cpu.op_class::SimdFloatAlu                   0      0.00%     75.00% # Class of executed instruction
system.cpu.op_class::SimdFloatCmp                   0      0.00%     75.00% # Class of executed instruction
system.cpu.op_class::SimdFloatCvt                   0      0.00%     75.00% # Class of executed instruction
system.cpu.op_class::SimdFloatDiv                   0      0.00%     75.00% # Class of executed instruction
system.cpu.op_class::SimdFloatMisc                  0      0.00%     75.00% # Class of executed instruction
system.cpu.op_class::SimdFloatMult                  0      0.00%     75.00% # Class of executed instruction
system.cpu.op_class::SimdFloatMultAcc               0      0.00%     75.00% # Class of executed instruction
system.cpu.op_class::SimdFloatSqrt                  0      0.00%     75.00% # Class of executed instruction
system.cpu.op_class::SimdReduceAdd                  0      0.00%     75.00% # Class of executed instruction
system.cpu.op_class::SimdReduceAlu                  0      0.00%     75.00% # Class of executed instruction
system.cpu.op_class::SimdReduceCmp                  0      0.00%     75.00% # Class of executed instruction
system.cpu.op_class::SimdFloatReduceAdd             0      0.00%     75.00% # Class of executed instruction
system.cpu.op_class::SimdFloatReduceCmp             0      0.00%     75.00% # Class of executed instruction
system.cpu.op_class::SimdAes                        0      0.00%     75.00% # Class of executed instruction
system.cpu.op_class::SimdAesMix                     0      0.00%     75.00% # Class of executed instruction
system.cpu.op_class::SimdSha1Hash                   0      0.00%     75.00% # Class of executed instruction
system.cpu.op_class::SimdSha1Hash2                  0      0.00%     75.00% # Class of executed instruction
system.cpu.op_class::SimdSha256Hash                 0      0.00%     75.00% # Class of executed instruction
system.cpu.op_class::SimdSha256Hash2                0      0.00%     75.00% # Class of executed instruction
system.cpu.op_class::SimdShaSigma2                  0      0.00%     75.00% # Class of executed instruction
system.cpu.op_class::SimdShaSigma3                  0      0.00%     75.00% # Class of executed instruction
system.cpu.op_class::SimdPredAlu                    0      0.00%     75.00% # Class of executed instruction
system.cpu.op_class::MemRead                        5     25.00%    100.00% # Class of executed instruction
system.cpu.op_class::MemWrite                       0      0.00%    100.00% # Class of executed instruction
system.cpu.op_class::FloatMemRead                   0      0.00%    100.00% # Class of executed instruction
system.cpu.op_class::FloatMemWrite                  0      0.00%    100.00% # Class of executed instruction
system.cpu.op_class::IprAccess                      0      0.00%    100.00% # Class of executed instruction
system.cpu.op_class::InstPrefetch                   0      0.00%    100.00% # Class of executed instruction
system.cpu.op_class::total                         20                       # Class of executed instruction
system.cpu.workload.numSyscalls                    12                       # Number of system calls
system.l2.MSHRs.leapFrogMisses                      5                       # number of false blocks from MSHR
system.membus.snoop_filter.hit_multi_requests            0                       # Number of requests hitting in the snoop filter with multiple (>1) holders of the requested data.
system.membus.snoop_filter.hit_multi_snoops            0                       # Number of snoops hitting in the snoop filter with multiple (>1) holders of the requested data.
system.membus.snoop_filter.hit_single_requests     36383741                       # Number of requests hitting in the snoop filter with a single holder of the requested data.
system.membus.snoop_filter.hit_single_snoops            0                       # Number of snoops hitting in the snoop filter with a single holder of the requested data.
system.membus.snoop_filter.tot_requests      72898556                       # Total number of requests made to the snoop filter.
system.membus.snoop_filter.tot_snoops               0                       # Total number of snoops made to the snoop filter.
system.switch_cpus.cc_regfile_reads          19798386                       # number of cc regfile reads
system.switch_cpus.cc_regfile_writes         19799092                       # number of cc regfile writes
system.switch_cpus.committedInsts          2000000001                       # Number of Instructions Simulated
system.switch_cpus.committedOps            2075976389                       # Number of Ops (including micro ops) Simulated
system.switch_cpus.cpi                       1.331544                       # CPI: Cycles Per Instruction
system.switch_cpus.cpi_total                 1.331544                       # CPI: Total CPI of All Threads
system.switch_cpus.idleCycles                   83200                       # Total number of cycles that the CPU has spent unscheduled due to idling
system.switch_cpus.iew.branchMispredicts        60644                       # Number of branch mispredicts detected at execute
system.switch_cpus.iew.exec_branches          6751837                       # Number of branches executed
system.switch_cpus.iew.exec_nop                 22925                       # number of nop insts executed
system.switch_cpus.iew.exec_rate             0.908000                       # Inst execution rate
system.switch_cpus.iew.exec_refs           1075564806                       # number of memory reference insts executed
system.switch_cpus.iew.exec_stores          146174364                       # Number of stores executed
system.switch_cpus.iew.exec_swp                     0                       # number of swp insts executed
system.switch_cpus.iew.iewBlockCycles       242695203                       # Number of cycles IEW is blocking
system.switch_cpus.iew.iewDispLoadInsts     596238717                       # Number of dispatched load instructions
system.switch_cpus.iew.iewDispNonSpecInsts          229                       # Number of dispatched non-speculative instructions
system.switch_cpus.iew.iewDispSquashedInsts         7735                       # Number of squashed instructions skipped by dispatch
system.switch_cpus.iew.iewDispStoreInsts    146474796                       # Number of dispatched store instructions
system.switch_cpus.iew.iewDispatchedInsts   2087542361                       # Number of instructions dispatched to IQ
system.switch_cpus.iew.iewExecLoadInsts     929390442                       # Number of load instructions executed
system.switch_cpus.iew.iewExecSquashedInsts       264702                       # Number of squashed instructions skipped in execute
system.switch_cpus.iew.iewExecutedInsts    2418085015                       # Number of executed instructions
system.switch_cpus.iew.iewIQFullEvents       14982001                       # Number of times the IQ has become full, causing a stall
system.switch_cpus.iew.iewIdleCycles                0                       # Number of cycles IEW is idle
system.switch_cpus.iew.iewLSQFullEvents     775664712                       # Number of times the LSQ has become full, causing a stall
system.switch_cpus.iew.iewSquashCycles         148444                       # Number of cycles IEW is squashing
system.switch_cpus.iew.iewUnblockCycles     807980840                       # Number of cycles IEW is unblocking
system.switch_cpus.iew.memOrderViolationEvents         8074                       # Number of memory order violations
system.switch_cpus.iew.predictedNotTakenIncorrect          964                       # Number of branches that were predicted not taken incorrectly
system.switch_cpus.iew.predictedTakenIncorrect        59680                       # Number of branches that were predicted taken incorrectly
system.switch_cpus.iew.wb_consumers        1728971873                       # num instructions consuming a value
system.switch_cpus.iew.wb_count            2084440304                       # cumulative count of insts written-back
system.switch_cpus.iew.wb_fanout             0.820215                       # average fanout of values written-back
system.switch_cpus.iew.wb_producers        1418128580                       # num instructions producing a value
system.switch_cpus.iew.wb_rate               0.782715                       # insts written-back per cycle
system.switch_cpus.iew.wb_sent             2084700117                       # cumulative count of insts sent to commit
system.switch_cpus.int_regfile_reads       2228179455                       # number of integer regfile reads
system.switch_cpus.int_regfile_writes       560977029                       # number of integer regfile writes
system.switch_cpus.ipc                       0.751008                       # IPC: Instructions Per Cycle
system.switch_cpus.ipc_total                 0.751008                       # IPC: Total IPC of All Threads
system.switch_cpus.iq.FU_type_0::No_OpClass           90      0.00%      0.00% # Type of FU issued
system.switch_cpus.iq.FU_type_0::IntAlu     360521130     14.91%     14.91% # Type of FU issued
system.switch_cpus.iq.FU_type_0::IntMult     34414398      1.42%     16.33% # Type of FU issued
system.switch_cpus.iq.FU_type_0::IntDiv      16524860      0.68%     17.01% # Type of FU issued
system.switch_cpus.iq.FU_type_0::FloatAdd    242014173     10.01%     27.02% # Type of FU issued
system.switch_cpus.iq.FU_type_0::FloatCmp            5      0.00%     27.02% # Type of FU issued
system.switch_cpus.iq.FU_type_0::FloatCvt            0      0.00%     27.02% # Type of FU issued
system.switch_cpus.iq.FU_type_0::FloatMult     76574665      3.17%     30.19% # Type of FU issued
system.switch_cpus.iq.FU_type_0::FloatMultAcc     91386340      3.78%     33.97% # Type of FU issued
system.switch_cpus.iq.FU_type_0::FloatDiv    159410860      6.59%     40.56% # Type of FU issued
system.switch_cpus.iq.FU_type_0::FloatMisc     13869639      0.57%     41.13% # Type of FU issued
system.switch_cpus.iq.FU_type_0::FloatSqrt            0      0.00%     41.13% # Type of FU issued
system.switch_cpus.iq.FU_type_0::SimdAdd            0      0.00%     41.13% # Type of FU issued
system.switch_cpus.iq.FU_type_0::SimdAddAcc            0      0.00%     41.13% # Type of FU issued
system.switch_cpus.iq.FU_type_0::SimdAlu           12      0.00%     41.13% # Type of FU issued
system.switch_cpus.iq.FU_type_0::SimdCmp           34      0.00%     41.13% # Type of FU issued
system.switch_cpus.iq.FU_type_0::SimdCvt            0      0.00%     41.13% # Type of FU issued
system.switch_cpus.iq.FU_type_0::SimdMisc        23315      0.00%     41.13% # Type of FU issued
system.switch_cpus.iq.FU_type_0::SimdMult            0      0.00%     41.13% # Type of FU issued
system.switch_cpus.iq.FU_type_0::SimdMultAcc            0      0.00%     41.13% # Type of FU issued
system.switch_cpus.iq.FU_type_0::SimdShift            7      0.00%     41.13% # Type of FU issued
system.switch_cpus.iq.FU_type_0::SimdShiftAcc            0      0.00%     41.13% # Type of FU issued
system.switch_cpus.iq.FU_type_0::SimdDiv            0      0.00%     41.13% # Type of FU issued
system.switch_cpus.iq.FU_type_0::SimdSqrt            0      0.00%     41.13% # Type of FU issued
system.switch_cpus.iq.FU_type_0::SimdFloatAdd    149148216      6.17%     47.30% # Type of FU issued
system.switch_cpus.iq.FU_type_0::SimdFloatAlu            0      0.00%     47.30% # Type of FU issued
system.switch_cpus.iq.FU_type_0::SimdFloatCmp            0      0.00%     47.30% # Type of FU issued
system.switch_cpus.iq.FU_type_0::SimdFloatCvt            0      0.00%     47.30% # Type of FU issued
system.switch_cpus.iq.FU_type_0::SimdFloatDiv     85227588      3.52%     50.82% # Type of FU issued
system.switch_cpus.iq.FU_type_0::SimdFloatMisc            0      0.00%     50.82% # Type of FU issued
system.switch_cpus.iq.FU_type_0::SimdFloatMult     14204592      0.59%     51.41% # Type of FU issued
system.switch_cpus.iq.FU_type_0::SimdFloatMultAcc     99432310      4.11%     55.52% # Type of FU issued
system.switch_cpus.iq.FU_type_0::SimdFloatSqrt            0      0.00%     55.52% # Type of FU issued
system.switch_cpus.iq.FU_type_0::SimdReduceAdd            0      0.00%     55.52% # Type of FU issued
system.switch_cpus.iq.FU_type_0::SimdReduceAlu            0      0.00%     55.52% # Type of FU issued
system.switch_cpus.iq.FU_type_0::SimdReduceCmp            0      0.00%     55.52% # Type of FU issued
system.switch_cpus.iq.FU_type_0::SimdFloatReduceAdd            0      0.00%     55.52% # Type of FU issued
system.switch_cpus.iq.FU_type_0::SimdFloatReduceCmp            0      0.00%     55.52% # Type of FU issued
system.switch_cpus.iq.FU_type_0::SimdAes            0      0.00%     55.52% # Type of FU issued
system.switch_cpus.iq.FU_type_0::SimdAesMix            0      0.00%     55.52% # Type of FU issued
system.switch_cpus.iq.FU_type_0::SimdSha1Hash            0      0.00%     55.52% # Type of FU issued
system.switch_cpus.iq.FU_type_0::SimdSha1Hash2            0      0.00%     55.52% # Type of FU issued
system.switch_cpus.iq.FU_type_0::SimdSha256Hash            0      0.00%     55.52% # Type of FU issued
system.switch_cpus.iq.FU_type_0::SimdSha256Hash2            0      0.00%     55.52% # Type of FU issued
system.switch_cpus.iq.FU_type_0::SimdShaSigma2            0      0.00%     55.52% # Type of FU issued
system.switch_cpus.iq.FU_type_0::SimdShaSigma3            0      0.00%     55.52% # Type of FU issued
system.switch_cpus.iq.FU_type_0::SimdPredAlu            0      0.00%     55.52% # Type of FU issued
system.switch_cpus.iq.FU_type_0::MemRead    929415576     38.43%     93.96% # Type of FU issued
system.switch_cpus.iq.FU_type_0::MemWrite    146181915      6.04%    100.00% # Type of FU issued
system.switch_cpus.iq.FU_type_0::FloatMemRead            0      0.00%    100.00% # Type of FU issued
system.switch_cpus.iq.FU_type_0::FloatMemWrite            0      0.00%    100.00% # Type of FU issued
system.switch_cpus.iq.FU_type_0::IprAccess            0      0.00%    100.00% # Type of FU issued
system.switch_cpus.iq.FU_type_0::InstPrefetch            0      0.00%    100.00% # Type of FU issued
system.switch_cpus.iq.FU_type_0::total     2418349725                       # Type of FU issued
system.switch_cpus.iq.fp_alu_accesses               0                       # Number of floating point alu accesses
system.switch_cpus.iq.fp_inst_queue_reads            0                       # Number of floating instruction queue reads
system.switch_cpus.iq.fp_inst_queue_wakeup_accesses            0                       # Number of floating instruction queue wakeup accesses
system.switch_cpus.iq.fp_inst_queue_writes            0                       # Number of floating instruction queue writes
system.switch_cpus.iq.fu_busy_cnt          2721882084                       # FU busy when requested
system.switch_cpus.iq.fu_busy_rate           1.125512                       # FU busy rate (busy events/executed inst)
system.switch_cpus.iq.fu_full::No_OpClass            0      0.00%      0.00% # attempts to use FU when none available
system.switch_cpus.iq.fu_full::IntAlu            2323      0.00%      0.00% # attempts to use FU when none available
system.switch_cpus.iq.fu_full::IntMult       13388411      0.49%      0.49% # attempts to use FU when none available
system.switch_cpus.iq.fu_full::IntDiv        47592996      1.75%      2.24% # attempts to use FU when none available
system.switch_cpus.iq.fu_full::FloatAdd         20556      0.00%      2.24% # attempts to use FU when none available
system.switch_cpus.iq.fu_full::FloatCmp             0      0.00%      2.24% # attempts to use FU when none available
system.switch_cpus.iq.fu_full::FloatCvt             0      0.00%      2.24% # attempts to use FU when none available
system.switch_cpus.iq.fu_full::FloatMult    610283812     22.42%     24.66% # attempts to use FU when none available
system.switch_cpus.iq.fu_full::FloatMultAcc    378405758     13.90%     38.57% # attempts to use FU when none available
system.switch_cpus.iq.fu_full::FloatDiv     915345776     33.63%     72.19% # attempts to use FU when none available
system.switch_cpus.iq.fu_full::FloatMisc    665780785     24.46%     96.65% # attempts to use FU when none available
system.switch_cpus.iq.fu_full::FloatSqrt            0      0.00%     96.65% # attempts to use FU when none available
system.switch_cpus.iq.fu_full::SimdAdd              0      0.00%     96.65% # attempts to use FU when none available
system.switch_cpus.iq.fu_full::SimdAddAcc            0      0.00%     96.65% # attempts to use FU when none available
system.switch_cpus.iq.fu_full::SimdAlu              0      0.00%     96.65% # attempts to use FU when none available
system.switch_cpus.iq.fu_full::SimdCmp              0      0.00%     96.65% # attempts to use FU when none available
system.switch_cpus.iq.fu_full::SimdCvt              0      0.00%     96.65% # attempts to use FU when none available
system.switch_cpus.iq.fu_full::SimdMisc             0      0.00%     96.65% # attempts to use FU when none available
system.switch_cpus.iq.fu_full::SimdMult             0      0.00%     96.65% # attempts to use FU when none available
system.switch_cpus.iq.fu_full::SimdMultAcc            0      0.00%     96.65% # attempts to use FU when none available
system.switch_cpus.iq.fu_full::SimdShift            0      0.00%     96.65% # attempts to use FU when none available
system.switch_cpus.iq.fu_full::SimdShiftAcc            0      0.00%     96.65% # attempts to use FU when none available
system.switch_cpus.iq.fu_full::SimdDiv              0      0.00%     96.65% # attempts to use FU when none available
system.switch_cpus.iq.fu_full::SimdSqrt             0      0.00%     96.65% # attempts to use FU when none available
system.switch_cpus.iq.fu_full::SimdFloatAdd      1148430      0.04%     96.70% # attempts to use FU when none available
system.switch_cpus.iq.fu_full::SimdFloatAlu            0      0.00%     96.70% # attempts to use FU when none available
system.switch_cpus.iq.fu_full::SimdFloatCmp            0      0.00%     96.70% # attempts to use FU when none available
system.switch_cpus.iq.fu_full::SimdFloatCvt            0      0.00%     96.70% # attempts to use FU when none available
system.switch_cpus.iq.fu_full::SimdFloatDiv      1040320      0.04%     96.73% # attempts to use FU when none available
system.switch_cpus.iq.fu_full::SimdFloatMisc            0      0.00%     96.73% # attempts to use FU when none available
system.switch_cpus.iq.fu_full::SimdFloatMult         4187      0.00%     96.74% # attempts to use FU when none available
system.switch_cpus.iq.fu_full::SimdFloatMultAcc      2767501      0.10%     96.84% # attempts to use FU when none available
system.switch_cpus.iq.fu_full::SimdFloatSqrt            0      0.00%     96.84% # attempts to use FU when none available
system.switch_cpus.iq.fu_full::SimdReduceAdd            0      0.00%     96.84% # attempts to use FU when none available
system.switch_cpus.iq.fu_full::SimdReduceAlu            0      0.00%     96.84% # attempts to use FU when none available
system.switch_cpus.iq.fu_full::SimdReduceCmp            0      0.00%     96.84% # attempts to use FU when none available
system.switch_cpus.iq.fu_full::SimdFloatReduceAdd            0      0.00%     96.84% # attempts to use FU when none available
system.switch_cpus.iq.fu_full::SimdFloatReduceCmp            0      0.00%     96.84% # attempts to use FU when none available
system.switch_cpus.iq.fu_full::SimdAes              0      0.00%     96.84% # attempts to use FU when none available
system.switch_cpus.iq.fu_full::SimdAesMix            0      0.00%     96.84% # attempts to use FU when none available
system.switch_cpus.iq.fu_full::SimdSha1Hash            0      0.00%     96.84% # attempts to use FU when none available
system.switch_cpus.iq.fu_full::SimdSha1Hash2            0      0.00%     96.84% # attempts to use FU when none available
system.switch_cpus.iq.fu_full::SimdSha256Hash            0      0.00%     96.84% # attempts to use FU when none available
system.switch_cpus.iq.fu_full::SimdSha256Hash2            0      0.00%     96.84% # attempts to use FU when none available
system.switch_cpus.iq.fu_full::SimdShaSigma2            0      0.00%     96.84% # attempts to use FU when none available
system.switch_cpus.iq.fu_full::SimdShaSigma3            0      0.00%     96.84% # attempts to use FU when none available
system.switch_cpus.iq.fu_full::SimdPredAlu            0      0.00%     96.84% # attempts to use FU when none available
system.switch_cpus.iq.fu_full::MemRead       84728070      3.11%     99.95% # attempts to use FU when none available
system.switch_cpus.iq.fu_full::MemWrite       1373159      0.05%    100.00% # attempts to use FU when none available
system.switch_cpus.iq.fu_full::FloatMemRead            0      0.00%    100.00% # attempts to use FU when none available
system.switch_cpus.iq.fu_full::FloatMemWrite            0      0.00%    100.00% # attempts to use FU when none available
system.switch_cpus.iq.fu_full::IprAccess            0      0.00%    100.00% # attempts to use FU when none available
system.switch_cpus.iq.fu_full::InstPrefetch            0      0.00%    100.00% # attempts to use FU when none available
system.switch_cpus.iq.int_alu_accesses      829189717                       # Number of integer alu accesses
system.switch_cpus.iq.int_inst_queue_reads   4225673173                       # Number of integer instruction queue reads
system.switch_cpus.iq.int_inst_queue_wakeup_accesses    616320657                       # Number of integer instruction queue wakeup accesses
system.switch_cpus.iq.int_inst_queue_writes    620147469                       # Number of integer instruction queue writes
system.switch_cpus.iq.iqInstsAdded         2087519207                       # Number of instructions added to the IQ (excludes non-spec)
system.switch_cpus.iq.iqInstsIssued        2418349725                       # Number of instructions issued
system.switch_cpus.iq.iqNonSpecInstsAdded          229                       # Number of non-speculative instructions added to the IQ
system.switch_cpus.iq.iqSquashedInstsExamined     11543023                       # Number of squashed instructions iterated over during squash; mainly for profiling
system.switch_cpus.iq.iqSquashedInstsIssued       673182                       # Number of squashed instructions issued
system.switch_cpus.iq.iqSquashedNonSpecRemoved          107                       # Number of squashed non-spec instructions that were removed
system.switch_cpus.iq.iqSquashedOperandsExamined     11026139                       # Number of squashed operands that are examined and possibly removed from graph
system.switch_cpus.iq.issued_per_cycle::samples   2663005410                       # Number of insts issued each cycle
system.switch_cpus.iq.issued_per_cycle::mean     0.908128                       # Number of insts issued each cycle
system.switch_cpus.iq.issued_per_cycle::stdev     1.604684                       # Number of insts issued each cycle
system.switch_cpus.iq.issued_per_cycle::underflows            0      0.00%      0.00% # Number of insts issued each cycle
system.switch_cpus.iq.issued_per_cycle::0   1722352072     64.68%     64.68% # Number of insts issued each cycle
system.switch_cpus.iq.issued_per_cycle::1    362424214     13.61%     78.29% # Number of insts issued each cycle
system.switch_cpus.iq.issued_per_cycle::2    207568701      7.79%     86.08% # Number of insts issued each cycle
system.switch_cpus.iq.issued_per_cycle::3     97197980      3.65%     89.73% # Number of insts issued each cycle
system.switch_cpus.iq.issued_per_cycle::4    125907500      4.73%     94.46% # Number of insts issued each cycle
system.switch_cpus.iq.issued_per_cycle::5     78580925      2.95%     97.41% # Number of insts issued each cycle
system.switch_cpus.iq.issued_per_cycle::6     39783418      1.49%     98.90% # Number of insts issued each cycle
system.switch_cpus.iq.issued_per_cycle::7     19565764      0.73%     99.64% # Number of insts issued each cycle
system.switch_cpus.iq.issued_per_cycle::8      9624836      0.36%    100.00% # Number of insts issued each cycle
system.switch_cpus.iq.issued_per_cycle::overflows            0      0.00%    100.00% # Number of insts issued each cycle
system.switch_cpus.iq.issued_per_cycle::min_value            0                       # Number of insts issued each cycle
system.switch_cpus.iq.issued_per_cycle::max_value            8                       # Number of insts issued each cycle
system.switch_cpus.iq.issued_per_cycle::total   2663005410                       # Number of insts issued each cycle
system.switch_cpus.iq.rate                   0.908100                       # Inst issue rate
system.switch_cpus.iq.vec_alu_accesses     4311042002                       # Number of vector alu accesses
system.switch_cpus.iq.vec_inst_queue_reads   5996586945                       # Number of vector instruction queue reads
system.switch_cpus.iq.vec_inst_queue_wakeup_accesses   1468119647                       # Number of vector instruction queue wakeup accesses
system.switch_cpus.iq.vec_inst_queue_writes   1478922566                       # Number of vector instruction queue writes
system.switch_cpus.memDep0.conflictingLoads      8879542                       # Number of conflicting loads.
system.switch_cpus.memDep0.conflictingStores      2904558                       # Number of conflicting stores.
system.switch_cpus.memDep0.insertedLoads    596238717                       # Number of loads inserted to the mem dependence unit.
system.switch_cpus.memDep0.insertedStores    146474796                       # Number of stores inserted to the mem dependence unit.
system.switch_cpus.misc_regfile_reads      9642066855                       # number of misc regfile reads
system.switch_cpus.misc_regfile_writes      913766192                       # number of misc regfile writes
system.switch_cpus.numCycles               2663088610                       # number of cpu cycles simulated
system.switch_cpus.numWorkItemsCompleted            0                       # number of work items this cpu completed
system.switch_cpus.numWorkItemsStarted              0                       # number of work items this cpu started
system.switch_cpus.pred_regfile_reads              60                       # number of predicate regfile reads
system.switch_cpus.pred_regfile_writes             20                       # number of predicate regfile writes
system.switch_cpus.timesIdled                     765                       # Number of times that the entire CPU went into an idle state and unscheduled itself
system.switch_cpus.vec_regfile_reads       2111416021                       # number of vector regfile reads
system.switch_cpus.vec_regfile_writes      1390659434                       # number of vector regfile writes
system.tol2bus.snoop_filter.hit_multi_requests            3                       # Number of requests hitting in the snoop filter with multiple (>1) holders of the requested data.
system.tol2bus.snoop_filter.hit_multi_snoops            0                       # Number of snoops hitting in the snoop filter with multiple (>1) holders of the requested data.
system.tol2bus.snoop_filter.hit_single_requests     58720722                       # Number of requests hitting in the snoop filter with a single holder of the requested data.
system.tol2bus.snoop_filter.hit_single_snoops          108                       # Number of snoops hitting in the snoop filter with a single holder of the requested data.
system.tol2bus.snoop_filter.tot_requests    117442465                       # Total number of requests made to the snoop filter.
system.tol2bus.snoop_filter.tot_snoops            108                       # Total number of snoops made to the snoop filter.
system.clk_domain.clock                          1000                       # Clock period in ticks
system.cpu.dcache.demand_hits::.cpu.data            1                       # number of demand (read+write) hits
system.cpu.dcache.demand_hits::.switch_cpus.data    677819969                       # number of demand (read+write) hits
system.cpu.dcache.demand_hits::total        677819970                       # number of demand (read+write) hits
system.cpu.dcache.overall_hits::.cpu.data            1                       # number of overall hits
system.cpu.dcache.overall_hits::.switch_cpus.data    677819969                       # number of overall hits
system.cpu.dcache.overall_hits::total       677819970                       # number of overall hits
system.cpu.dcache.demand_misses::.cpu.data            4                       # number of demand (read+write) misses
system.cpu.dcache.demand_misses::.switch_cpus.data     79542608                       # number of demand (read+write) misses
system.cpu.dcache.demand_misses::total       79542612                       # number of demand (read+write) misses
system.cpu.dcache.overall_misses::.cpu.data            4                       # number of overall misses
system.cpu.dcache.overall_misses::.switch_cpus.data     79542608                       # number of overall misses
system.cpu.dcache.overall_misses::total      79542612                       # number of overall misses
system.cpu.dcache.demand_miss_latency::.switch_cpus.data 4460838910389                       # number of demand (read+write) miss cycles
system.cpu.dcache.demand_miss_latency::total 4460838910389                       # number of demand (read+write) miss cycles
system.cpu.dcache.overall_miss_latency::.switch_cpus.data 4460838910389                       # number of overall miss cycles
system.cpu.dcache.overall_miss_latency::total 4460838910389                       # number of overall miss cycles
system.cpu.dcache.demand_accesses::.cpu.data            5                       # number of demand (read+write) accesses
system.cpu.dcache.demand_accesses::.switch_cpus.data    757362577                       # number of demand (read+write) accesses
system.cpu.dcache.demand_accesses::total    757362582                       # number of demand (read+write) accesses
system.cpu.dcache.overall_accesses::.cpu.data            5                       # number of overall (read+write) accesses
system.cpu.dcache.overall_accesses::.switch_cpus.data    757362577                       # number of overall (read+write) accesses
system.cpu.dcache.overall_accesses::total    757362582                       # number of overall (read+write) accesses
system.cpu.dcache.demand_miss_rate::.cpu.data     0.800000                       # miss rate for demand accesses
system.cpu.dcache.demand_miss_rate::.switch_cpus.data     0.105026                       # miss rate for demand accesses
system.cpu.dcache.demand_miss_rate::total     0.105026                       # miss rate for demand accesses
system.cpu.dcache.overall_miss_rate::.cpu.data     0.800000                       # miss rate for overall accesses
system.cpu.dcache.overall_miss_rate::.switch_cpus.data     0.105026                       # miss rate for overall accesses
system.cpu.dcache.overall_miss_rate::total     0.105026                       # miss rate for overall accesses
system.cpu.dcache.demand_avg_miss_latency::.switch_cpus.data 56081.124602                       # average overall miss latency
system.cpu.dcache.demand_avg_miss_latency::total 56081.121781                       # average overall miss latency
system.cpu.dcache.overall_avg_miss_latency::.switch_cpus.data 56081.124602                       # average overall miss latency
system.cpu.dcache.overall_avg_miss_latency::total 56081.121781                       # average overall miss latency
system.cpu.dcache.blocked_cycles::no_mshrs    894014632                       # number of cycles access was blocked
system.cpu.dcache.blocked_cycles::no_targets            0                       # number of cycles access was blocked
system.cpu.dcache.blocked::no_mshrs          31337494                       # number of cycles access was blocked
system.cpu.dcache.blocked::no_targets               0                       # number of cycles access was blocked
system.cpu.dcache.avg_blocked_cycles::no_mshrs    28.528594                       # average number of cycles each access was blocked
system.cpu.dcache.avg_blocked_cycles::no_targets          nan                       # average number of cycles each access was blocked
system.cpu.dcache.ghost_timestamp_misses            0                       # number of times timestamp policy causes a block to be inaccessible
system.cpu.dcache.ghost_commits                     0                       # number of cache lines moved from ghost to main
system.cpu.dcache.same_leapfrogs                    0                       # number of times leapfrogging occurs with a shared MSHR request
system.cpu.dcache.writebacks::.writebacks     58720157                       # number of writebacks
system.cpu.dcache.writebacks::total          58720157                       # number of writebacks
system.cpu.dcache.demand_mshr_hits::.switch_cpus.data     20821943                       # number of demand (read+write) MSHR hits
system.cpu.dcache.demand_mshr_hits::total     20821943                       # number of demand (read+write) MSHR hits
system.cpu.dcache.overall_mshr_hits::.switch_cpus.data     20821943                       # number of overall MSHR hits
system.cpu.dcache.overall_mshr_hits::total     20821943                       # number of overall MSHR hits
system.cpu.dcache.demand_mshr_misses::.switch_cpus.data     58720665                       # number of demand (read+write) MSHR misses
system.cpu.dcache.demand_mshr_misses::total     58720665                       # number of demand (read+write) MSHR misses
system.cpu.dcache.overall_mshr_misses::.switch_cpus.data     58720665                       # number of overall MSHR misses
system.cpu.dcache.overall_mshr_misses::total     58720665                       # number of overall MSHR misses
system.cpu.dcache.demand_mshr_miss_latency::.switch_cpus.data 3088081358969                       # number of demand (read+write) MSHR miss cycles
system.cpu.dcache.demand_mshr_miss_latency::total 3088081358969                       # number of demand (read+write) MSHR miss cycles
system.cpu.dcache.overall_mshr_miss_latency::.switch_cpus.data 3088081358969                       # number of overall MSHR miss cycles
system.cpu.dcache.overall_mshr_miss_latency::total 3088081358969                       # number of overall MSHR miss cycles
system.cpu.dcache.demand_mshr_miss_rate::.switch_cpus.data     0.077533                       # mshr miss rate for demand accesses
system.cpu.dcache.demand_mshr_miss_rate::total     0.077533                       # mshr miss rate for demand accesses
system.cpu.dcache.overall_mshr_miss_rate::.switch_cpus.data     0.077533                       # mshr miss rate for overall accesses
system.cpu.dcache.overall_mshr_miss_rate::total     0.077533                       # mshr miss rate for overall accesses
system.cpu.dcache.demand_avg_mshr_miss_latency::.switch_cpus.data 52589.345829                       # average overall mshr miss latency
system.cpu.dcache.demand_avg_mshr_miss_latency::total 52589.345829                       # average overall mshr miss latency
system.cpu.dcache.overall_avg_mshr_miss_latency::.switch_cpus.data 52589.345829                       # average overall mshr miss latency
system.cpu.dcache.overall_avg_mshr_miss_latency::total 52589.345829                       # average overall mshr miss latency
system.cpu.dcache.replacements               58720157                       # number of replacements
system.cpu.dcache.ReadReq_hits::.cpu.data            1                       # number of ReadReq hits
system.cpu.dcache.ReadReq_hits::.switch_cpus.data    556351293                       # number of ReadReq hits
system.cpu.dcache.ReadReq_hits::total       556351294                       # number of ReadReq hits
system.cpu.dcache.ReadReq_misses::.cpu.data            4                       # number of ReadReq misses
system.cpu.dcache.ReadReq_misses::.switch_cpus.data     55469332                       # number of ReadReq misses
system.cpu.dcache.ReadReq_misses::total      55469336                       # number of ReadReq misses
system.cpu.dcache.ReadReq_miss_latency::.switch_cpus.data 2748346546000                       # number of ReadReq miss cycles
system.cpu.dcache.ReadReq_miss_latency::total 2748346546000                       # number of ReadReq miss cycles
system.cpu.dcache.ReadReq_accesses::.cpu.data            5                       # number of ReadReq accesses(hits+misses)
system.cpu.dcache.ReadReq_accesses::.switch_cpus.data    611820625                       # number of ReadReq accesses(hits+misses)
system.cpu.dcache.ReadReq_accesses::total    611820630                       # number of ReadReq accesses(hits+misses)
system.cpu.dcache.ReadReq_miss_rate::.cpu.data     0.800000                       # miss rate for ReadReq accesses
system.cpu.dcache.ReadReq_miss_rate::.switch_cpus.data     0.090663                       # miss rate for ReadReq accesses
system.cpu.dcache.ReadReq_miss_rate::total     0.090663                       # miss rate for ReadReq accesses
system.cpu.dcache.ReadReq_avg_miss_latency::.switch_cpus.data 49547.136172                       # average ReadReq miss latency
system.cpu.dcache.ReadReq_avg_miss_latency::total 49547.132600                       # average ReadReq miss latency
system.cpu.dcache.ReadReq_mshr_hits::.switch_cpus.data      6396676                       # number of ReadReq MSHR hits
system.cpu.dcache.ReadReq_mshr_hits::total      6396676                       # number of ReadReq MSHR hits
system.cpu.dcache.ReadReq_mshr_misses::.switch_cpus.data     49072656                       # number of ReadReq MSHR misses
system.cpu.dcache.ReadReq_mshr_misses::total     49072656                       # number of ReadReq MSHR misses
system.cpu.dcache.ReadReq_mshr_miss_latency::.switch_cpus.data 2383872755000                       # number of ReadReq MSHR miss cycles
system.cpu.dcache.ReadReq_mshr_miss_latency::total 2383872755000                       # number of ReadReq MSHR miss cycles
system.cpu.dcache.ReadReq_mshr_miss_rate::.switch_cpus.data     0.080208                       # mshr miss rate for ReadReq accesses
system.cpu.dcache.ReadReq_mshr_miss_rate::total     0.080208                       # mshr miss rate for ReadReq accesses
system.cpu.dcache.ReadReq_avg_mshr_miss_latency::.switch_cpus.data 48578.433476                       # average ReadReq mshr miss latency
system.cpu.dcache.ReadReq_avg_mshr_miss_latency::total 48578.433476                       # average ReadReq mshr miss latency
system.cpu.dcache.WriteReq_hits::.switch_cpus.data    121468676                       # number of WriteReq hits
system.cpu.dcache.WriteReq_hits::total      121468676                       # number of WriteReq hits
system.cpu.dcache.WriteReq_misses::.switch_cpus.data     24073207                       # number of WriteReq misses
system.cpu.dcache.WriteReq_misses::total     24073207                       # number of WriteReq misses
system.cpu.dcache.WriteReq_miss_latency::.switch_cpus.data 1712490092446                       # number of WriteReq miss cycles
system.cpu.dcache.WriteReq_miss_latency::total 1712490092446                       # number of WriteReq miss cycles
system.cpu.dcache.WriteReq_accesses::.switch_cpus.data    145541883                       # number of WriteReq accesses(hits+misses)
system.cpu.dcache.WriteReq_accesses::total    145541883                       # number of WriteReq accesses(hits+misses)
system.cpu.dcache.WriteReq_miss_rate::.switch_cpus.data     0.165404                       # miss rate for WriteReq accesses
system.cpu.dcache.WriteReq_miss_rate::total     0.165404                       # miss rate for WriteReq accesses
system.cpu.dcache.WriteReq_avg_miss_latency::.switch_cpus.data 71136.765967                       # average WriteReq miss latency
system.cpu.dcache.WriteReq_avg_miss_latency::total 71136.765967                       # average WriteReq miss latency
system.cpu.dcache.WriteReq_mshr_hits::.switch_cpus.data     14425267                       # number of WriteReq MSHR hits
system.cpu.dcache.WriteReq_mshr_hits::total     14425267                       # number of WriteReq MSHR hits
system.cpu.dcache.WriteReq_mshr_misses::.switch_cpus.data      9647940                       # number of WriteReq MSHR misses
system.cpu.dcache.WriteReq_mshr_misses::total      9647940                       # number of WriteReq MSHR misses
system.cpu.dcache.WriteReq_mshr_miss_latency::.switch_cpus.data 704206401026                       # number of WriteReq MSHR miss cycles
system.cpu.dcache.WriteReq_mshr_miss_latency::total 704206401026                       # number of WriteReq MSHR miss cycles
system.cpu.dcache.WriteReq_mshr_miss_rate::.switch_cpus.data     0.066290                       # mshr miss rate for WriteReq accesses
system.cpu.dcache.WriteReq_mshr_miss_rate::total     0.066290                       # mshr miss rate for WriteReq accesses
system.cpu.dcache.WriteReq_avg_mshr_miss_latency::.switch_cpus.data 72990.337940                       # average WriteReq mshr miss latency
system.cpu.dcache.WriteReq_avg_mshr_miss_latency::total 72990.337940                       # average WriteReq mshr miss latency
system.cpu.dcache.WriteLineReq_misses::.switch_cpus.data           69                       # number of WriteLineReq misses
system.cpu.dcache.WriteLineReq_misses::total           69                       # number of WriteLineReq misses
system.cpu.dcache.WriteLineReq_miss_latency::.switch_cpus.data      2271943                       # number of WriteLineReq miss cycles
system.cpu.dcache.WriteLineReq_miss_latency::total      2271943                       # number of WriteLineReq miss cycles
system.cpu.dcache.WriteLineReq_accesses::.switch_cpus.data           69                       # number of WriteLineReq accesses(hits+misses)
system.cpu.dcache.WriteLineReq_accesses::total           69                       # number of WriteLineReq accesses(hits+misses)
system.cpu.dcache.WriteLineReq_miss_rate::.switch_cpus.data            1                       # miss rate for WriteLineReq accesses
system.cpu.dcache.WriteLineReq_miss_rate::total            1                       # miss rate for WriteLineReq accesses
system.cpu.dcache.WriteLineReq_avg_miss_latency::.switch_cpus.data 32926.710145                       # average WriteLineReq miss latency
system.cpu.dcache.WriteLineReq_avg_miss_latency::total 32926.710145                       # average WriteLineReq miss latency
system.cpu.dcache.WriteLineReq_mshr_misses::.switch_cpus.data           69                       # number of WriteLineReq MSHR misses
system.cpu.dcache.WriteLineReq_mshr_misses::total           69                       # number of WriteLineReq MSHR misses
system.cpu.dcache.WriteLineReq_mshr_miss_latency::.switch_cpus.data      2202943                       # number of WriteLineReq MSHR miss cycles
system.cpu.dcache.WriteLineReq_mshr_miss_latency::total      2202943                       # number of WriteLineReq MSHR miss cycles
system.cpu.dcache.WriteLineReq_mshr_miss_rate::.switch_cpus.data            1                       # mshr miss rate for WriteLineReq accesses
system.cpu.dcache.WriteLineReq_mshr_miss_rate::total            1                       # mshr miss rate for WriteLineReq accesses
system.cpu.dcache.WriteLineReq_avg_mshr_miss_latency::.switch_cpus.data 31926.710145                       # average WriteLineReq mshr miss latency
system.cpu.dcache.WriteLineReq_avg_mshr_miss_latency::total 31926.710145                       # average WriteLineReq mshr miss latency
system.cpu.dcache.SwapReq_hits::.switch_cpus.data           26                       # number of SwapReq hits
system.cpu.dcache.SwapReq_hits::total              26                       # number of SwapReq hits
system.cpu.dcache.SwapReq_accesses::.switch_cpus.data           26                       # number of SwapReq accesses(hits+misses)
system.cpu.dcache.SwapReq_accesses::total           26                       # number of SwapReq accesses(hits+misses)
system.cpu.dcache.ghosttags.tagsinuse               0                       # Cycle average of tags in use
system.cpu.dcache.ghosttags.total_refs              0                       # Total number of references to valid blocks.
system.cpu.dcache.ghosttags.sampled_refs            0                       # Sample count of references to valid blocks.
system.cpu.dcache.ghosttags.avg_refs              nan                       # Average number of references to valid blocks.
system.cpu.dcache.ghosttags.warmup_cycle            0                       # Cycle when the warmup percentage was hit.
system.cpu.dcache.ghosttags.tag_accesses            0                       # Number of tag accesses
system.cpu.dcache.ghosttags.data_accesses            0                       # Number of data accesses
system.cpu.dcache.ghosttags.repl_invalid            0                       # Number of initial replacements
system.cpu.dcache.ghosttags.repl_valid_tag            0                       # Number of local replacements
system.cpu.dcache.ghosttags.repl_valid_data            0                       # Number of global replacements
system.cpu.dcache.ghosttags.power_state.pwrStateResidencyTicks::UNDEFINED 7335903699000                       # Cumulative time (in ticks) in various power states
system.cpu.dcache.power_state.pwrStateResidencyTicks::UNDEFINED 7335903699000                       # Cumulative time (in ticks) in various power states
system.cpu.dcache.tags.tagsinuse           511.996448                       # Cycle average of tags in use
system.cpu.dcache.tags.total_refs           736540665                       # Total number of references to valid blocks.
system.cpu.dcache.tags.sampled_refs          58720669                       # Sample count of references to valid blocks.
system.cpu.dcache.tags.avg_refs             12.543125                       # Average number of references to valid blocks.
system.cpu.dcache.tags.warmup_cycle      6004359385500                       # Cycle when the warmup percentage was hit.
system.cpu.dcache.tags.occ_blocks::.cpu.data     0.593128                       # Average occupied blocks per requestor
system.cpu.dcache.tags.occ_blocks::.switch_cpus.data   511.403320                       # Average occupied blocks per requestor
system.cpu.dcache.tags.occ_percent::.cpu.data     0.001158                       # Average percentage of cache occupancy
system.cpu.dcache.tags.occ_percent::.switch_cpus.data     0.998835                       # Average percentage of cache occupancy
system.cpu.dcache.tags.occ_percent::total     0.999993                       # Average percentage of cache occupancy
system.cpu.dcache.tags.occ_task_id_blocks::1024          512                       # Occupied blocks per task id
system.cpu.dcache.tags.age_task_id_blocks_1024::0          391                       # Occupied blocks per task id
system.cpu.dcache.tags.age_task_id_blocks_1024::1          120                       # Occupied blocks per task id
system.cpu.dcache.tags.age_task_id_blocks_1024::2            1                       # Occupied blocks per task id
system.cpu.dcache.tags.occ_task_id_percent::1024            1                       # Percentage of cache occupancy per task id
system.cpu.dcache.tags.tag_accesses        6117621533                       # Number of tag accesses
system.cpu.dcache.tags.data_accesses       6117621533                       # Number of data accesses
system.cpu.dcache.tags.repl_invalid                 0                       # Number of initial replacements
system.cpu.dcache.tags.repl_valid_tag               0                       # Number of local replacements
system.cpu.dcache.tags.repl_valid_data              0                       # Number of global replacements
system.cpu.dcache.tags.power_state.pwrStateResidencyTicks::UNDEFINED 7335903699000                       # Cumulative time (in ticks) in various power states
system.cpu.dtb.instHits                             0                       # ITB inst hits
system.cpu.dtb.instMisses                           0                       # ITB inst misses
system.cpu.dtb.readHits                             0                       # DTB read hits
system.cpu.dtb.readMisses                           0                       # DTB read misses
system.cpu.dtb.writeHits                            0                       # DTB write hits
system.cpu.dtb.writeMisses                          0                       # DTB write misses
system.cpu.dtb.inserts                              0                       # Number of times an entry is inserted into the TLB
system.cpu.dtb.flushTlb                             2                       # Number of times complete TLB was flushed
system.cpu.dtb.flushTlbMva                          0                       # Number of times TLB was flushed by MVA
system.cpu.dtb.flushTlbMvaAsid                      0                       # Number of times TLB was flushed by MVA & ASID
system.cpu.dtb.flushTlbAsid                         0                       # Number of times TLB was flushed by ASID
system.cpu.dtb.flushedEntries                       0                       # Number of entries that have been flushed from TLB
system.cpu.dtb.alignFaults                          0                       # Number of TLB faults due to alignment restrictions
system.cpu.dtb.prefetchFaults                       0                       # Number of TLB faults due to prefetch
system.cpu.dtb.domainFaults                         0                       # Number of TLB faults due to domain restrictions
system.cpu.dtb.permsFaults                          0                       # Number of TLB faults due to permissions restrictions
system.cpu.dtb.readAccesses                         0                       # DTB read accesses
system.cpu.dtb.writeAccesses                        0                       # DTB write accesses
system.cpu.dtb.instAccesses                         0                       # ITB inst accesses
system.cpu.dtb.hits                                 0                       # Total TLB (inst and data) hits
system.cpu.dtb.misses                               0                       # Total TLB (inst and data) misses
system.cpu.dtb.accesses                             0                       # Total TLB (inst and data) accesses
system.cpu.dtb.stage2_mmu.stage2_tlb.instHits            0                       # ITB inst hits
system.cpu.dtb.stage2_mmu.stage2_tlb.instMisses            0                       # ITB inst misses
system.cpu.dtb.stage2_mmu.stage2_tlb.readHits            0                       # DTB read hits
system.cpu.dtb.stage2_mmu.stage2_tlb.readMisses            0                       # DTB read misses
system.cpu.dtb.stage2_mmu.stage2_tlb.writeHits            0                       # DTB write hits
system.cpu.dtb.stage2_mmu.stage2_tlb.writeMisses            0                       # DTB write misses
system.cpu.dtb.stage2_mmu.stage2_tlb.inserts            0                       # Number of times an entry is inserted into the TLB
system.cpu.dtb.stage2_mmu.stage2_tlb.flushTlb            0                       # Number of times complete TLB was flushed
system.cpu.dtb.stage2_mmu.stage2_tlb.flushTlbMva            0                       # Number of times TLB was flushed by MVA
system.cpu.dtb.stage2_mmu.stage2_tlb.flushTlbMvaAsid            0                       # Number of times TLB was flushed by MVA & ASID
system.cpu.dtb.stage2_mmu.stage2_tlb.flushTlbAsid            0                       # Number of times TLB was flushed by ASID
system.cpu.dtb.stage2_mmu.stage2_tlb.flushedEntries            0                       # Number of entries that have been flushed from TLB
system.cpu.dtb.stage2_mmu.stage2_tlb.alignFaults            0                       # Number of TLB faults due to alignment restrictions
system.cpu.dtb.stage2_mmu.stage2_tlb.prefetchFaults            0                       # Number of TLB faults due to prefetch
system.cpu.dtb.stage2_mmu.stage2_tlb.domainFaults            0                       # Number of TLB faults due to domain restrictions
system.cpu.dtb.stage2_mmu.stage2_tlb.permsFaults            0                       # Number of TLB faults due to permissions restrictions
system.cpu.dtb.stage2_mmu.stage2_tlb.readAccesses            0                       # DTB read accesses
system.cpu.dtb.stage2_mmu.stage2_tlb.writeAccesses            0                       # DTB write accesses
system.cpu.dtb.stage2_mmu.stage2_tlb.instAccesses            0                       # ITB inst accesses
system.cpu.dtb.stage2_mmu.stage2_tlb.hits            0                       # Total TLB (inst and data) hits
system.cpu.dtb.stage2_mmu.stage2_tlb.misses            0                       # Total TLB (inst and data) misses
system.cpu.dtb.stage2_mmu.stage2_tlb.accesses            0                       # Total TLB (inst and data) accesses
system.cpu.dtb.stage2_mmu.stage2_tlb.walker.walks            0                       # Table walker walks requested
system.cpu.dtb.stage2_mmu.stage2_tlb.walker.requestOrigin_Requested::Data            0                       # Table walker requests started/completed, data/inst
system.cpu.dtb.stage2_mmu.stage2_tlb.walker.requestOrigin_Requested::Inst            0                       # Table walker requests started/completed, data/inst
system.cpu.dtb.stage2_mmu.stage2_tlb.walker.requestOrigin_Requested::total            0                       # Table walker requests started/completed, data/inst
system.cpu.dtb.stage2_mmu.stage2_tlb.walker.requestOrigin_Completed::Data            0                       # Table walker requests started/completed, data/inst
system.cpu.dtb.stage2_mmu.stage2_tlb.walker.requestOrigin_Completed::Inst            0                       # Table walker requests started/completed, data/inst
system.cpu.dtb.stage2_mmu.stage2_tlb.walker.requestOrigin_Completed::total            0                       # Table walker requests started/completed, data/inst
system.cpu.dtb.stage2_mmu.stage2_tlb.walker.requestOrigin::total            0                       # Table walker requests started/completed, data/inst
system.cpu.dtb.stage2_mmu.stage2_tlb.walker.power_state.pwrStateResidencyTicks::UNDEFINED 7335903699000                       # Cumulative time (in ticks) in various power states
system.cpu.dtb.walker.walks                         0                       # Table walker walks requested
system.cpu.dtb.walker.requestOrigin_Requested::Data            0                       # Table walker requests started/completed, data/inst
system.cpu.dtb.walker.requestOrigin_Requested::Inst            0                       # Table walker requests started/completed, data/inst
system.cpu.dtb.walker.requestOrigin_Requested::total            0                       # Table walker requests started/completed, data/inst
system.cpu.dtb.walker.requestOrigin_Completed::Data            0                       # Table walker requests started/completed, data/inst
system.cpu.dtb.walker.requestOrigin_Completed::Inst            0                       # Table walker requests started/completed, data/inst
system.cpu.dtb.walker.requestOrigin_Completed::total            0                       # Table walker requests started/completed, data/inst
system.cpu.dtb.walker.requestOrigin::total            0                       # Table walker requests started/completed, data/inst
system.cpu.dtb.walker.power_state.pwrStateResidencyTicks::UNDEFINED 7335903699000                       # Cumulative time (in ticks) in various power states
system.cpu.icache.demand_hits::.cpu.inst           18                       # number of demand (read+write) hits
system.cpu.icache.demand_hits::.switch_cpus.inst    136848137                       # number of demand (read+write) hits
system.cpu.icache.demand_hits::total        136848155                       # number of demand (read+write) hits
system.cpu.icache.overall_hits::.cpu.inst           18                       # number of overall hits
system.cpu.icache.overall_hits::.switch_cpus.inst    136848137                       # number of overall hits
system.cpu.icache.overall_hits::total       136848155                       # number of overall hits
system.cpu.icache.demand_misses::.cpu.inst            2                       # number of demand (read+write) misses
system.cpu.icache.demand_misses::.switch_cpus.inst         1488                       # number of demand (read+write) misses
system.cpu.icache.demand_misses::total           1490                       # number of demand (read+write) misses
system.cpu.icache.overall_misses::.cpu.inst            2                       # number of overall misses
system.cpu.icache.overall_misses::.switch_cpus.inst         1488                       # number of overall misses
system.cpu.icache.overall_misses::total          1490                       # number of overall misses
system.cpu.icache.demand_miss_latency::.switch_cpus.inst    109571998                       # number of demand (read+write) miss cycles
system.cpu.icache.demand_miss_latency::total    109571998                       # number of demand (read+write) miss cycles
system.cpu.icache.overall_miss_latency::.switch_cpus.inst    109571998                       # number of overall miss cycles
system.cpu.icache.overall_miss_latency::total    109571998                       # number of overall miss cycles
system.cpu.icache.demand_accesses::.cpu.inst           20                       # number of demand (read+write) accesses
system.cpu.icache.demand_accesses::.switch_cpus.inst    136849625                       # number of demand (read+write) accesses
system.cpu.icache.demand_accesses::total    136849645                       # number of demand (read+write) accesses
system.cpu.icache.overall_accesses::.cpu.inst           20                       # number of overall (read+write) accesses
system.cpu.icache.overall_accesses::.switch_cpus.inst    136849625                       # number of overall (read+write) accesses
system.cpu.icache.overall_accesses::total    136849645                       # number of overall (read+write) accesses
system.cpu.icache.demand_miss_rate::.cpu.inst     0.100000                       # miss rate for demand accesses
system.cpu.icache.demand_miss_rate::.switch_cpus.inst     0.000011                       # miss rate for demand accesses
system.cpu.icache.demand_miss_rate::total     0.000011                       # miss rate for demand accesses
system.cpu.icache.overall_miss_rate::.cpu.inst     0.100000                       # miss rate for overall accesses
system.cpu.icache.overall_miss_rate::.switch_cpus.inst     0.000011                       # miss rate for overall accesses
system.cpu.icache.overall_miss_rate::total     0.000011                       # miss rate for overall accesses
system.cpu.icache.demand_avg_miss_latency::.switch_cpus.inst 73637.095430                       # average overall miss latency
system.cpu.icache.demand_avg_miss_latency::total 73538.253691                       # average overall miss latency
system.cpu.icache.overall_avg_miss_latency::.switch_cpus.inst 73637.095430                       # average overall miss latency
system.cpu.icache.overall_avg_miss_latency::total 73538.253691                       # average overall miss latency
system.cpu.icache.blocked_cycles::no_mshrs         1464                       # number of cycles access was blocked
system.cpu.icache.blocked_cycles::no_targets            0                       # number of cycles access was blocked
system.cpu.icache.blocked::no_mshrs                17                       # number of cycles access was blocked
system.cpu.icache.blocked::no_targets               0                       # number of cycles access was blocked
system.cpu.icache.avg_blocked_cycles::no_mshrs    86.117647                       # average number of cycles each access was blocked
system.cpu.icache.avg_blocked_cycles::no_targets          nan                       # average number of cycles each access was blocked
system.cpu.icache.ghost_timestamp_misses            0                       # number of times timestamp policy causes a block to be inaccessible
system.cpu.icache.ghost_commits                     0                       # number of cache lines moved from ghost to main
system.cpu.icache.same_leapfrogs                    0                       # number of times leapfrogging occurs with a shared MSHR request
system.cpu.icache.writebacks::.writebacks          563                       # number of writebacks
system.cpu.icache.writebacks::total               563                       # number of writebacks
system.cpu.icache.demand_mshr_hits::.switch_cpus.inst          416                       # number of demand (read+write) MSHR hits
system.cpu.icache.demand_mshr_hits::total          416                       # number of demand (read+write) MSHR hits
system.cpu.icache.overall_mshr_hits::.switch_cpus.inst          416                       # number of overall MSHR hits
system.cpu.icache.overall_mshr_hits::total          416                       # number of overall MSHR hits
system.cpu.icache.demand_mshr_misses::.switch_cpus.inst         1072                       # number of demand (read+write) MSHR misses
system.cpu.icache.demand_mshr_misses::total         1072                       # number of demand (read+write) MSHR misses
system.cpu.icache.overall_mshr_misses::.switch_cpus.inst         1072                       # number of overall MSHR misses
system.cpu.icache.overall_mshr_misses::total         1072                       # number of overall MSHR misses
system.cpu.icache.demand_mshr_miss_latency::.switch_cpus.inst     81340999                       # number of demand (read+write) MSHR miss cycles
system.cpu.icache.demand_mshr_miss_latency::total     81340999                       # number of demand (read+write) MSHR miss cycles
system.cpu.icache.overall_mshr_miss_latency::.switch_cpus.inst     81340999                       # number of overall MSHR miss cycles
system.cpu.icache.overall_mshr_miss_latency::total     81340999                       # number of overall MSHR miss cycles
system.cpu.icache.demand_mshr_miss_rate::.switch_cpus.inst     0.000008                       # mshr miss rate for demand accesses
system.cpu.icache.demand_mshr_miss_rate::total     0.000008                       # mshr miss rate for demand accesses
system.cpu.icache.overall_mshr_miss_rate::.switch_cpus.inst     0.000008                       # mshr miss rate for overall accesses
system.cpu.icache.overall_mshr_miss_rate::total     0.000008                       # mshr miss rate for overall accesses
system.cpu.icache.demand_avg_mshr_miss_latency::.switch_cpus.inst 75877.797575                       # average overall mshr miss latency
system.cpu.icache.demand_avg_mshr_miss_latency::total 75877.797575                       # average overall mshr miss latency
system.cpu.icache.overall_avg_mshr_miss_latency::.switch_cpus.inst 75877.797575                       # average overall mshr miss latency
system.cpu.icache.overall_avg_mshr_miss_latency::total 75877.797575                       # average overall mshr miss latency
system.cpu.icache.replacements                    563                       # number of replacements
system.cpu.icache.ReadReq_hits::.cpu.inst           18                       # number of ReadReq hits
system.cpu.icache.ReadReq_hits::.switch_cpus.inst    136848137                       # number of ReadReq hits
system.cpu.icache.ReadReq_hits::total       136848155                       # number of ReadReq hits
system.cpu.icache.ReadReq_misses::.cpu.inst            2                       # number of ReadReq misses
system.cpu.icache.ReadReq_misses::.switch_cpus.inst         1488                       # number of ReadReq misses
system.cpu.icache.ReadReq_misses::total          1490                       # number of ReadReq misses
system.cpu.icache.ReadReq_miss_latency::.switch_cpus.inst    109571998                       # number of ReadReq miss cycles
system.cpu.icache.ReadReq_miss_latency::total    109571998                       # number of ReadReq miss cycles
system.cpu.icache.ReadReq_accesses::.cpu.inst           20                       # number of ReadReq accesses(hits+misses)
system.cpu.icache.ReadReq_accesses::.switch_cpus.inst    136849625                       # number of ReadReq accesses(hits+misses)
system.cpu.icache.ReadReq_accesses::total    136849645                       # number of ReadReq accesses(hits+misses)
system.cpu.icache.ReadReq_miss_rate::.cpu.inst     0.100000                       # miss rate for ReadReq accesses
system.cpu.icache.ReadReq_miss_rate::.switch_cpus.inst     0.000011                       # miss rate for ReadReq accesses
system.cpu.icache.ReadReq_miss_rate::total     0.000011                       # miss rate for ReadReq accesses
system.cpu.icache.ReadReq_avg_miss_latency::.switch_cpus.inst 73637.095430                       # average ReadReq miss latency
system.cpu.icache.ReadReq_avg_miss_latency::total 73538.253691                       # average ReadReq miss latency
system.cpu.icache.ReadReq_mshr_hits::.switch_cpus.inst          416                       # number of ReadReq MSHR hits
system.cpu.icache.ReadReq_mshr_hits::total          416                       # number of ReadReq MSHR hits
system.cpu.icache.ReadReq_mshr_misses::.switch_cpus.inst         1072                       # number of ReadReq MSHR misses
system.cpu.icache.ReadReq_mshr_misses::total         1072                       # number of ReadReq MSHR misses
system.cpu.icache.ReadReq_mshr_miss_latency::.switch_cpus.inst     81340999                       # number of ReadReq MSHR miss cycles
system.cpu.icache.ReadReq_mshr_miss_latency::total     81340999                       # number of ReadReq MSHR miss cycles
system.cpu.icache.ReadReq_mshr_miss_rate::.switch_cpus.inst     0.000008                       # mshr miss rate for ReadReq accesses
system.cpu.icache.ReadReq_mshr_miss_rate::total     0.000008                       # mshr miss rate for ReadReq accesses
system.cpu.icache.ReadReq_avg_mshr_miss_latency::.switch_cpus.inst 75877.797575                       # average ReadReq mshr miss latency
system.cpu.icache.ReadReq_avg_mshr_miss_latency::total 75877.797575                       # average ReadReq mshr miss latency
system.cpu.icache.ghosttags.tagsinuse               0                       # Cycle average of tags in use
system.cpu.icache.ghosttags.total_refs              0                       # Total number of references to valid blocks.
system.cpu.icache.ghosttags.sampled_refs            0                       # Sample count of references to valid blocks.
system.cpu.icache.ghosttags.avg_refs              nan                       # Average number of references to valid blocks.
system.cpu.icache.ghosttags.warmup_cycle            0                       # Cycle when the warmup percentage was hit.
system.cpu.icache.ghosttags.tag_accesses            0                       # Number of tag accesses
system.cpu.icache.ghosttags.data_accesses            0                       # Number of data accesses
system.cpu.icache.ghosttags.repl_invalid            0                       # Number of initial replacements
system.cpu.icache.ghosttags.repl_valid_tag            0                       # Number of local replacements
system.cpu.icache.ghosttags.repl_valid_data            0                       # Number of global replacements
system.cpu.icache.ghosttags.power_state.pwrStateResidencyTicks::UNDEFINED 7335903699000                       # Cumulative time (in ticks) in various power states
system.cpu.icache.power_state.pwrStateResidencyTicks::UNDEFINED 7335903699000                       # Cumulative time (in ticks) in various power states
system.cpu.icache.tags.tagsinuse            67.756135                       # Cycle average of tags in use
system.cpu.icache.tags.total_refs           136849229                       # Total number of references to valid blocks.
system.cpu.icache.tags.sampled_refs              1074                       # Sample count of references to valid blocks.
system.cpu.icache.tags.avg_refs          127420.138734                       # Average number of references to valid blocks.
system.cpu.icache.tags.warmup_cycle      6004359385000                       # Cycle when the warmup percentage was hit.
system.cpu.icache.tags.occ_blocks::.cpu.inst     1.998852                       # Average occupied blocks per requestor
system.cpu.icache.tags.occ_blocks::.switch_cpus.inst    65.757283                       # Average occupied blocks per requestor
system.cpu.icache.tags.occ_percent::.cpu.inst     0.003904                       # Average percentage of cache occupancy
system.cpu.icache.tags.occ_percent::.switch_cpus.inst     0.128432                       # Average percentage of cache occupancy
system.cpu.icache.tags.occ_percent::total     0.132336                       # Average percentage of cache occupancy
system.cpu.icache.tags.occ_task_id_blocks::1024          511                       # Occupied blocks per task id
system.cpu.icache.tags.age_task_id_blocks_1024::2          509                       # Occupied blocks per task id
system.cpu.icache.tags.age_task_id_blocks_1024::4            2                       # Occupied blocks per task id
system.cpu.icache.tags.occ_task_id_percent::1024     0.998047                       # Percentage of cache occupancy per task id
system.cpu.icache.tags.tag_accesses        1094798234                       # Number of tag accesses
system.cpu.icache.tags.data_accesses       1094798234                       # Number of data accesses
system.cpu.icache.tags.repl_invalid                 0                       # Number of initial replacements
system.cpu.icache.tags.repl_valid_tag               0                       # Number of local replacements
system.cpu.icache.tags.repl_valid_data              0                       # Number of global replacements
system.cpu.icache.tags.power_state.pwrStateResidencyTicks::UNDEFINED 7335903699000                       # Cumulative time (in ticks) in various power states
system.cpu.itb.instHits                             0                       # ITB inst hits
system.cpu.itb.instMisses                           0                       # ITB inst misses
system.cpu.itb.readHits                             0                       # DTB read hits
system.cpu.itb.readMisses                           0                       # DTB read misses
system.cpu.itb.writeHits                            0                       # DTB write hits
system.cpu.itb.writeMisses                          0                       # DTB write misses
system.cpu.itb.inserts                              0                       # Number of times an entry is inserted into the TLB
system.cpu.itb.flushTlb                             2                       # Number of times complete TLB was flushed
system.cpu.itb.flushTlbMva                          0                       # Number of times TLB was flushed by MVA
system.cpu.itb.flushTlbMvaAsid                      0                       # Number of times TLB was flushed by MVA & ASID
system.cpu.itb.flushTlbAsid                         0                       # Number of times TLB was flushed by ASID
system.cpu.itb.flushedEntries                       0                       # Number of entries that have been flushed from TLB
system.cpu.itb.alignFaults                          0                       # Number of TLB faults due to alignment restrictions
system.cpu.itb.prefetchFaults                       0                       # Number of TLB faults due to prefetch
system.cpu.itb.domainFaults                         0                       # Number of TLB faults due to domain restrictions
system.cpu.itb.permsFaults                          0                       # Number of TLB faults due to permissions restrictions
system.cpu.itb.readAccesses                         0                       # DTB read accesses
[...]
system.switch_cpus.fetch.predictedBranches      6654591                       # Number of branches that fetch has predicted taken
system.switch_cpus.fetch.cycles            2525857745                       # Number of cycles fetch has run and was not squashing or blocked
system.switch_cpus.fetch.squashCycles          297900                       # Number of cycles fetch has spent squashing
system.switch_cpus.fetch.miscStallCycles          114                       # Number of cycles fetch has spent waiting on interrupts,or bad addresses, or out of MSHRs
system.switch_cpus.fetch.pendingTrapStallCycles          225                       # Number of stall cycles due to pending traps
system.switch_cpus.fetch.icacheWaitRetryStallCycles           77                       # Number of stall cycles due to full MSHR
system.switch_cpus.fetch.cacheLines         136849626                       # Number of cache lines fetched
system.switch_cpus.fetch.icacheSquashes         20517                       # Number of outstanding Icache misses that were squashed
system.switch_cpus.fetch.nisnDist::samples   2663005410                       # Number of instructions fetched each cycle (Total)
system.switch_cpus.fetch.nisnDist::mean      0.786274                       # Number of instructions fetched each cycle (Total)
system.switch_cpus.fetch.nisnDist::stdev     2.260849                       # Number of instructions fetched each cycle (Total)
system.switch_cpus.fetch.nisnDist::underflows            0      0.00%      0.00% # Number of instructions fetched each cycle (Total)
system.switch_cpus.fetch.nisnDist::0       2334910398     87.68%     87.68% # Number of instructions fetched each cycle (Total)
system.switch_cpus.fetch.nisnDist::1         18440100      0.69%     88.37% # Number of instructions fetched each cycle (Total)
system.switch_cpus.fetch.nisnDist::2         23750507      0.89%     89.26% # Number of instructions fetched each cycle (Total)
system.switch_cpus.fetch.nisnDist::3         25042934      0.94%     90.20% # Number of instructions fetched each cycle (Total)
system.switch_cpus.fetch.nisnDist::4          2884421      0.11%     90.31% # Number of instructions fetched each cycle (Total)
system.switch_cpus.fetch.nisnDist::5         29774152      1.12%     91.43% # Number of instructions fetched each cycle (Total)
system.switch_cpus.fetch.nisnDist::6         11271015      0.42%     91.85% # Number of instructions fetched each cycle (Total)
system.switch_cpus.fetch.nisnDist::7         10706438      0.40%     92.26% # Number of instructions fetched each cycle (Total)
system.switch_cpus.fetch.nisnDist::8        206225445      7.74%    100.00% # Number of instructions fetched each cycle (Total)
system.switch_cpus.fetch.nisnDist::overflows            0      0.00%    100.00% # Number of instructions fetched each cycle (Total)
system.switch_cpus.fetch.nisnDist::min_value            0                       # Number of instructions fetched each cycle (Total)
system.switch_cpus.fetch.nisnDist::max_value            8                       # Number of instructions fetched each cycle (Total)
system.switch_cpus.fetch.nisnDist::total   2663005410                       # Number of instructions fetched each cycle (Total)
system.switch_cpus.fetch.branchRate          0.002541                       # Number of branch fetches per cycle
system.switch_cpus.fetch.rate                0.757422                       # Number of inst fetches per cycle
system.switch_cpus.itb.instHits                     0                       # ITB inst hits
system.switch_cpus.itb.instMisses                   0                       # ITB inst misses
system.switch_cpus.itb.readHits                     0                       # DTB read hits
system.switch_cpus.itb.readMisses                   0                       # DTB read misses
system.switch_cpus.itb.writeHits                    0                       # DTB write hits
system.switch_cpus.itb.writeMisses                  0                       # DTB write misses
system.switch_cpus.itb.inserts                      0                       # Number of times an entry is inserted into the TLB
system.switch_cpus.itb.flushTlb                    12                       # Number of times complete TLB was flushed
system.switch_cpus.itb.flushTlbMva                  0                       # Number of times TLB was flushed by MVA
system.switch_cpus.itb.flushTlbMvaAsid              0                       # Number of times TLB was flushed by MVA & ASID
system.switch_cpus.itb.flushTlbAsid                 0                       # Number of times TLB was flushed by ASID
system.switch_cpus.itb.flushedEntries               0                       # Number of entries that have been flushed from TLB
system.switch_cpus.itb.alignFaults                  0                       # Number of TLB faults due to alignment restrictions
system.switch_cpus.itb.prefetchFaults               0                       # Number of TLB faults due to prefetch
system.switch_cpus.itb.domainFaults                 0                       # Number of TLB faults due to domain restrictions
system.switch_cpus.itb.permsFaults                  0                       # Number of TLB faults due to permissions restrictions
system.switch_cpus.itb.readAccesses                 0                       # DTB read accesses
system.switch_cpus.itb.writeAccesses                0                       # DTB write accesses
system.switch_cpus.itb.instAccesses                 0                       # ITB inst accesses
system.switch_cpus.itb.hits                         0                       # Total TLB (inst and data) hits
system.switch_cpus.itb.misses                       0                       # Total TLB (inst and data) misses
system.switch_cpus.itb.accesses                     0                       # Total TLB (inst and data) accesses
system.switch_cpus.itb.stage2_mmu.stage2_tlb.instHits            0                       # ITB inst hits
system.switch_cpus.itb.stage2_mmu.stage2_tlb.instMisses            0                       # ITB inst misses
system.switch_cpus.itb.stage2_mmu.stage2_tlb.readHits            0                       # DTB read hits
system.switch_cpus.itb.stage2_mmu.stage2_tlb.readMisses            0                       # DTB read misses
system.switch_cpus.itb.stage2_mmu.stage2_tlb.writeHits            0                       # DTB write hits
system.switch_cpus.itb.stage2_mmu.stage2_tlb.writeMisses            0                       # DTB write misses
system.switch_cpus.itb.stage2_mmu.stage2_tlb.inserts            0                       # Number of times an entry is inserted into the TLB
system.switch_cpus.itb.stage2_mmu.stage2_tlb.flushTlb            0                       # Number of times complete TLB was flushed
system.switch_cpus.itb.stage2_mmu.stage2_tlb.flushTlbMva            0                       # Number of times TLB was flushed by MVA
system.switch_cpus.itb.stage2_mmu.stage2_tlb.flushTlbMvaAsid            0                       # Number of times TLB was flushed by MVA & ASID
system.switch_cpus.itb.stage2_mmu.stage2_tlb.flushTlbAsid            0                       # Number of times TLB was flushed by ASID
system.switch_cpus.itb.stage2_mmu.stage2_tlb.flushedEntries            0                       # Number of entries that have been flushed from TLB
system.switch_cpus.itb.stage2_mmu.stage2_tlb.alignFaults            0                       # Number of TLB faults due to alignment restrictions
system.switch_cpus.itb.stage2_mmu.stage2_tlb.prefetchFaults            0                       # Number of TLB faults due to prefetch
system.switch_cpus.itb.stage2_mmu.stage2_tlb.domainFaults            0                       # Number of TLB faults due to domain restrictions
system.switch_cpus.itb.stage2_mmu.stage2_tlb.permsFaults            0                       # Number of TLB faults due to permissions restrictions
system.switch_cpus.itb.stage2_mmu.stage2_tlb.readAccesses            0                       # DTB read accesses
system.switch_cpus.itb.stage2_mmu.stage2_tlb.writeAccesses            0                       # DTB write accesses
system.switch_cpus.itb.stage2_mmu.stage2_tlb.instAccesses            0                       # ITB inst accesses
system.switch_cpus.itb.stage2_mmu.stage2_tlb.hits            0                       # Total TLB (inst and data) hits
system.switch_cpus.itb.stage2_mmu.stage2_tlb.misses            0                       # Total TLB (inst and data) misses
system.switch_cpus.itb.stage2_mmu.stage2_tlb.accesses            0                       # Total TLB (inst and data) accesses
system.switch_cpus.itb.stage2_mmu.stage2_tlb.walker.walks            0                       # Table walker walks requested
system.switch_cpus.itb.stage2_mmu.stage2_tlb.walker.requestOrigin_Requested::Data            0                       # Table walker requests started/completed, data/inst
system.switch_cpus.itb.stage2_mmu.stage2_tlb.walker.requestOrigin_Requested::Inst            0                       # Table walker requests started/completed, data/inst
system.switch_cpus.itb.stage2_mmu.stage2_tlb.walker.requestOrigin_Requested::total            0                       # Table walker requests started/completed, data/inst
system.switch_cpus.itb.stage2_mmu.stage2_tlb.walker.requestOrigin_Completed::Data            0                       # Table walker requests started/completed, data/inst
system.switch_cpus.itb.stage2_mmu.stage2_tlb.walker.requestOrigin_Completed::Inst            0                       # Table walker requests started/completed, data/inst
system.switch_cpus.itb.stage2_mmu.stage2_tlb.walker.requestOrigin_Completed::total            0                       # Table walker requests started/completed, data/inst
system.switch_cpus.itb.stage2_mmu.stage2_tlb.walker.requestOrigin::total            0                       # Table walker requests started/completed, data/inst
system.switch_cpus.itb.stage2_mmu.stage2_tlb.walker.power_state.pwrStateResidencyTicks::UNDEFINED 7335903699000                       # Cumulative time (in ticks) in various power states
system.switch_cpus.itb.walker.walks                 0                       # Table walker walks requested
system.switch_cpus.itb.walker.requestOrigin_Requested::Data            0                       # Table walker requests started/completed, data/inst
system.switch_cpus.itb.walker.requestOrigin_Requested::Inst            0                       # Table walker requests started/completed, data/inst
system.switch_cpus.itb.walker.requestOrigin_Requested::total            0                       # Table walker requests started/completed, data/inst
system.switch_cpus.itb.walker.requestOrigin_Completed::Data            0                       # Table walker requests started/completed, data/inst
system.switch_cpus.itb.walker.requestOrigin_Completed::Inst            0                       # Table walker requests started/completed, data/inst
system.switch_cpus.itb.walker.requestOrigin_Completed::total            0                       # Table walker requests started/completed, data/inst
system.switch_cpus.itb.walker.requestOrigin::total            0                       # Table walker requests started/completed, data/inst
system.switch_cpus.itb.walker.power_state.pwrStateResidencyTicks::UNDEFINED 7335903699000                       # Cumulative time (in ticks) in various power states
system.switch_cpus.lsq0.forwLoads            10110572                       # Number of loads that had data forwarded from stores
system.switch_cpus.lsq0.squashedLoads         2959365                       # Number of loads squashed
system.switch_cpus.lsq0.ignoredResponses          114                       # Number of memory responses ignored because the instruction is squashed
system.switch_cpus.lsq0.memOrderViolation         8074                       # Number of memory ordering violations
system.switch_cpus.lsq0.squashedStores         932804                       # Number of stores squashed
system.switch_cpus.lsq0.rescheduledLoads      3481911                       # Number of loads that were rescheduled
system.switch_cpus.lsq0.blockedByCache       30714581                       # Number of times an access to memory failed due to the cache being blocked
system.switch_cpus.power_state.pwrStateResidencyTicks::OFF 1331544314500                       # Cumulative time (in ticks) in various power states
system.switch_cpus.rename.squashCycles         148444                       # Number of cycles rename is squashing
system.switch_cpus.rename.idleCycles        105749266                       # Number of cycles rename is idle
system.switch_cpus.rename.blockCycles      1141969742                       # Number of cycles rename is blocking
system.switch_cpus.rename.serializeStallCycles         4778                       # count of cycles rename stalledfor serializing inst
system.switch_cpus.rename.runCycles         209961272                       # Number of cycles rename is running
system.switch_cpus.rename.unblockCycles    1205171897                       # Number of cycles rename is unblocking
system.switch_cpus.rename.renamedInsts     2088178481                       # Number of instructions processed by rename
system.switch_cpus.rename.ROBFullEvents        105059                       # Number of times rename has blocked due to ROB full
system.switch_cpus.rename.IQFullEvents      230994687                       # Number of times rename has blocked due to IQ full
system.switch_cpus.rename.LQFullEvents      977841619                       # Number of times rename has blocked due to LQ full
system.switch_cpus.rename.SQFullEvents       29953435                       # Number of times rename has blocked due to SQ full
system.switch_cpus.rename.renamedOperands   2893476173                       # Number of destination operands rename has renamed
system.switch_cpus.rename.lookups          7746301836                       # Number of register rename lookups that rename has made
system.switch_cpus.rename.intLookups       1751493517                       # Number of integer rename lookups
system.switch_cpus.rename.vecLookups       2115086795                       # Number of vector rename lookups
system.switch_cpus.rename.vecPredLookups           48                       # Number of vector predicate rename lookups
system.switch_cpus.rename.committedMaps    2876914086                       # Number of HB maps that are committed
system.switch_cpus.rename.undoneMaps         16562053                       # Number of HB maps that are undone due to squashing
system.switch_cpus.rename.serializing             142                       # count of serializing insts renamed
system.switch_cpus.rename.tempSerializing           18                       # count of temporary serializing insts renamed
system.switch_cpus.rename.skidInsts         803348746                       # count of insts added to the skid buffer
system.switch_cpus.rob.reads               4566386363                       # The number of ROB reads
system.switch_cpus.rob.writes              4176445103                       # The number of ROB writes
system.switch_cpus.thread0.numInsts        2000000001                       # Number of Instructions committed
system.switch_cpus.thread0.numOps          2075976389                       # Number of Ops committed
system.switch_cpus.thread0.numMemRefs               0                       # Number of Memory References
system.tol2bus.trans_dist::ReadResp          49073734                       # Transaction distribution
system.tol2bus.trans_dist::WritebackDirty     19427397                       # Transaction distribution
system.tol2bus.trans_dist::WritebackClean     48892308                       # Transaction distribution
system.tol2bus.trans_dist::CleanEvict        26784862                       # Transaction distribution
system.tol2bus.trans_dist::HardPFReq         11124272                       # Transaction distribution
system.tol2bus.trans_dist::ReadExReq          9647917                       # Transaction distribution
system.tol2bus.trans_dist::ReadExResp         9647917                       # Transaction distribution
system.tol2bus.trans_dist::ReadCleanReq          1074                       # Transaction distribution
system.tol2bus.trans_dist::ReadSharedReq     49072660                       # Transaction distribution
system.tol2bus.trans_dist::InvalidateReq           92                       # Transaction distribution
system.tol2bus.trans_dist::InvalidateResp           92                       # Transaction distribution
system.tol2bus.pkt_count_system.cpu.icache.mem_side_port::system.l2.cpu_side_port         2711                       # Packet count per connected requestor and responder (bytes)
system.tol2bus.pkt_count_system.cpu.dcache.mem_side_port::system.l2.cpu_side_port    176161495                       # Packet count per connected requestor and responder (bytes)
system.tol2bus.pkt_count::total             176164206                       # Packet count per connected requestor and responder (bytes)
system.tol2bus.pkt_size_system.cpu.icache.mem_side_port::system.l2.cpu_side_port       104768                       # Cumulative packet size per connected requestor and responder (bytes)
system.tol2bus.pkt_size_system.cpu.dcache.mem_side_port::system.l2.cpu_side_port   7516206976                       # Cumulative packet size per connected requestor and responder (bytes)
system.tol2bus.pkt_size::total             7516311744                       # Cumulative packet size per connected requestor and responder (bytes)
system.tol2bus.snoops                        47508119                       # Total snoops (count)
system.tol2bus.snoopTraffic                 614335040                       # Total snoop traffic (bytes)
system.tol2bus.snoop_fanout::samples        106229862                       # Request fanout histogram
system.tol2bus.snoop_fanout::mean            0.000001                       # Request fanout histogram
system.tol2bus.snoop_fanout::stdev           0.001022                       # Request fanout histogram
system.tol2bus.snoop_fanout::underflows             0      0.00%      0.00% # Request fanout histogram
system.tol2bus.snoop_fanout::0              106229751    100.00%    100.00% # Request fanout histogram
system.tol2bus.snoop_fanout::1                    111      0.00%    100.00% # Request fanout histogram
system.tol2bus.snoop_fanout::2                      0      0.00%    100.00% # Request fanout histogram
system.tol2bus.snoop_fanout::overflows              0      0.00%    100.00% # Request fanout histogram
system.tol2bus.snoop_fanout::min_value              0                       # Request fanout histogram
system.tol2bus.snoop_fanout::max_value              1                       # Request fanout histogram
system.tol2bus.snoop_fanout::total          106229862                       # Request fanout histogram
system.tol2bus.power_state.pwrStateResidencyTicks::UNDEFINED 7335903699000                       # Cumulative time (in ticks) in various power states
system.tol2bus.reqLayer0.occupancy       117441950498                       # Layer occupancy (ticks)
system.tol2bus.reqLayer0.utilization              8.8                       # Layer utilization (%)
system.tol2bus.respLayer0.occupancy           1608000                       # Layer occupancy (ticks)
system.tol2bus.respLayer0.utilization             0.0                       # Layer utilization (%)
system.tol2bus.respLayer1.occupancy       88080905500                       # Layer occupancy (ticks)
system.tol2bus.respLayer1.utilization             6.6                       # Layer utilization (%)
system.voltage_domain.voltage                       1                       # Voltage in Volts

---------- End Simulation Statistics   ----------
