
---------- Begin Simulation Statistics ----------
final_tick                               7507651091000                       # Number of ticks from beginning of simulation (restored from checkpoints and never reset)
host_inst_rate                                 117018                       # Simulator instruction rate (inst/s)
host_mem_usage                               40561188                       # Number of bytes of host memory used
host_op_rate                                   121463                       # Simulator op (including micro ops) rate (op/s)
host_seconds                                 17091.42                       # Real time elapsed on the host
host_tick_rate                               87955913                       # Simulator tick rate (ticks/s)
sim_freq                                 1000000000000                       # Frequency of simulated ticks
sim_insts                                  2000000021                       # Number of instructions simulated
sim_ops                                    2075976409                       # Number of ops (including micro ops) simulated
sim_seconds                                  1.503292                       # Number of seconds simulated
sim_ticks                                1503291706500                       # Number of ticks simulated
system.cpu.committedInsts                          20                       # Number of instructions committed
system.cpu.committedOps                            20                       # Number of ops (including micro ops) committed
system.cpu.dcache.MSHRs.leapFrogMisses       10860506                       # number of false blocks from MSHR
system.cpu.icache.MSHRs.leapFrogMisses              0                       # number of false blocks from MSHR
system.cpu.idle_fraction                            0                       # Percentage of idle cycles
system.cpu.not_idle_fraction                        1                       # Percentage of non-idle cycles
system.cpu.numCycles                               20                       # number of cpu cycles simulated
system.cpu.numWorkItemsCompleted                    0                       # number of work items this cpu completed
system.cpu.numWorkItemsStarted                      0                       # number of work items this cpu started
system.cpu.num_busy_cycles                         20                       # Number of busy cycles
system.cpu.num_conditional_control_insts            0                       # number of instructions that are conditional controls
system.cpu.num_fp_alu_accesses                      0                       # Number of float alu accesses
system.cpu.num_fp_insts                             0                       # number of float instructions
system.cpu.num_fp_register_reads                    0                       # number of times the floating registers were read
system.cpu.num_fp_register_writes                   0                       # number of times the floating registers were written
system.cpu.num_func_calls                           0                       # number of times a function call or return occured
system.cpu.num_idle_cycles                          0                       # Number of idle cycles
system.cpu.num_int_alu_accesses                     7                       # Number of integer alu accesses
system.cpu.num_int_insts                            7                       # number of integer instructions
system.cpu.num_int_register_reads                  56                       # number of times the integer registers were read
system.cpu.num_int_register_writes                 16                       # number of times the integer registers were written
system.cpu.num_load_insts                           5                       # Number of load instructions
system.cpu.num_mem_refs                             5                       # number of memory refs
system.cpu.num_store_insts                          0                       # Number of store instructions
system.cpu.num_vec_alu_accesses                    17                       # Number of vector alu accesses
system.cpu.num_vec_insts                           17                       # number of vector instructions
system.cpu.num_vec_register_reads                  26                       # number of times the vector registers were read
system.cpu.num_vec_register_writes                 17                       # number of times the vector registers were written
system.cpu.op_class::No_OpClass                     0      0.00%      0.00% # Class of executed instruction
system.cpu.op_class::IntAlu                         2     10.00%     10.00% # Class of executed instruction
system.cpu.op_class::IntMult                        0      0.00%     10.00% # Class of executed instruction
system.cpu.op_class::IntDiv                         0      0.00%     10.00% # Class of executed instruction
system.cpu.op_class::FloatAdd                       7     35.00%     45.00% # Class of executed instruction
system.cpu.op_class::FloatCmp                       0      0.00%     45.00% # Class of executed instruction
system.cpu.op_class::FloatCvt                       0      0.00%     45.00% # Class of executed instruction
system.cpu.op_class::FloatMult                      0      0.00%     45.00% # Class of executed instruction
system.cpu.op_class::FloatMultAcc                   0      0.00%     45.00% # Class of executed instruction
system.cpu.op_class::FloatDiv                       6     30.00%     75.00% # Class of executed instruction
system.cpu.op_class::FloatMisc                      0      0.00%     75.00% # Class of executed instruction
system.cpu.op_class::FloatSqrt                      0      0.00%     75.00% # Class of executed instruction
system.cpu.op_class::SimdAdd                        0      0.00%     75.00% # Class of executed instruction
system.cpu.op_class::SimdAddAcc                     0      0.00%     75.00% # Class of executed instruction
system.cpu.op_class::SimdAlu                        0      0.00%     75.00% # Class of executed instruction
system.cpu.op_class::SimdCmp                        0      0.00%     75.00% # Class of executed instruction
system.cpu.op_class::SimdCvt                        0      0.00%     75.00% # Class of executed instruction
system.cpu.op_class::SimdMisc                       0      0.00%     75.00% # Class of executed instruction
system.cpu.op_class::SimdMult                       0      0.00%     75.00% # Class of executed instruction
system.cpu.op_class::SimdMultAcc                    0      0.00%     75.00% # Class of executed instruction
system.cpu.op_class::SimdShift                      0      0.00%     75.00% # Class of executed instruction
system.cpu.op_class::SimdShiftAcc                   0      0.00%     75.00% # Class of executed instruction
system.cpu.op_class::SimdDiv                        0      0.00%     75.00% # Class of executed instruction
system.cpu.op_class::SimdSqrt                       0      0.00%     75.00% # Class of executed instruction
system.cpu.op_class::SimdFloatAdd                   0      0.00%     75.00% # Class of executed instruction
system.cpu.op_class::SimdFloatAlu                   0      0.00%     75.00% # Class of executed instruction
system.cpu.op_class::SimdFloatCmp                   0      0.00%     75.00% # Class of executed instruction
system.cpu.op_class::SimdFloatCvt                   0      0.00%     75.00% # Class of executed instruction
system.cpu.op_class::SimdFloatDiv                   0      0.00%     75.00% # Class of executed instruction
system.cpu.op_class::SimdFloatMisc                  0      0.00%     75.00% # Class of executed instruction
system.cpu.op_class::SimdFloatMult                  0      0.00%     75.00% # Class of executed instruction
system.cpu.op_class::SimdFloatMultAcc               0      0.00%     75.00% # Class of executed instruction
system.cpu.op_class::SimdFloatSqrt                  0      0.00%     75.00% # Class of executed instruction
system.cpu.op_class::SimdReduceAdd                  0      0.00%     75.00% # Class of executed instruction
system.cpu.op_class::SimdReduceAlu                  0      0.00%     75.00% # Class of executed instruction
system.cpu.op_class::SimdReduceCmp                  0      0.00%     75.00% # Class of executed instruction
system.cpu.op_class::SimdFloatReduceAdd             0      0.00%     75.00% # Class of executed instruction
system.cpu.op_class::SimdFloatReduceCmp             0      0.00%     75.00% # Class of executed instruction
system.cpu.op_class::SimdAes                        0      0.00%     75.00% # Class of executed instruction
system.cpu.op_class::SimdAesMix                     0      0.00%     75.00% # Class of executed instruction
system.cpu.op_class::SimdSha1Hash                   0      0.00%     75.00% # Class of executed instruction
system.cpu.op_class::SimdSha1Hash2                  0      0.00%     75.00% # Class of executed instruction
system.cpu.op_class::SimdSha256Hash                 0      0.00%     75.00% # Class of executed instruction
system.cpu.op_class::SimdSha256Hash2                0      0.00%     75.00% # Class of executed instruction
system.cpu.op_class::SimdShaSigma2                  0      0.00%     75.00% # Class of executed instruction
system.cpu.op_class::SimdShaSigma3                  0      0.00%     75.00% # Class of executed instruction
system.cpu.op_class::SimdPredAlu                    0      0.00%     75.00% # Class of executed instruction
system.cpu.op_class::MemRead                        5     25.00%    100.00% # Class of executed instruction
system.cpu.op_class::MemWrite                       0      0.00%    100.00% # Class of executed instruction
system.cpu.op_class::FloatMemRead                   0      0.00%    100.00% # Class of executed instruction
system.cpu.op_class::FloatMemWrite                  0      0.00%    100.00% # Class of executed instruction
system.cpu.op_class::IprAccess                      0      0.00%    100.00% # Class of executed instruction
system.cpu.op_class::InstPrefetch                   0      0.00%    100.00% # Class of executed instruction
system.cpu.op_class::total                         20                       # Class of executed instruction
system.cpu.workload.numSyscalls                    12                       # Number of system calls
system.l2.MSHRs.leapFrogMisses                      3                       # number of false blocks from MSHR
system.membus.snoop_filter.hit_multi_requests            0                       # Number of requests hitting in the snoop filter with multiple (>1) holders of the requested data.
system.membus.snoop_filter.hit_multi_snoops            0                       # Number of snoops hitting in the snoop filter with multiple (>1) holders of the requested data.
system.membus.snoop_filter.hit_single_requests     42989248                       # Number of requests hitting in the snoop filter with a single holder of the requested data.
system.membus.snoop_filter.hit_single_snoops            0                       # Number of snoops hitting in the snoop filter with a single holder of the requested data.
system.membus.snoop_filter.tot_requests      82136609                       # Total number of requests made to the snoop filter.
system.membus.snoop_filter.tot_snoops               0                       # Total number of snoops made to the snoop filter.
system.switch_cpus.cc_regfile_reads          19798152                       # number of cc regfile reads
system.switch_cpus.cc_regfile_writes         19798928                       # number of cc regfile writes
system.switch_cpus.committedInsts          2000000001                       # Number of Instructions Simulated
system.switch_cpus.committedOps            2075976389                       # Number of Ops (including micro ops) Simulated
system.switch_cpus.cpi                       1.503292                       # CPI: Cycles Per Instruction
system.switch_cpus.cpi_total                 1.503292                       # CPI: Total CPI of All Threads
system.switch_cpus.idleCycles                  120598                       # Total number of cycles that the CPU has spent unscheduled due to idling
system.switch_cpus.iew.branchMispredicts        60624                       # Number of branch mispredicts detected at execute
system.switch_cpus.iew.exec_branches          6751653                       # Number of branches executed
system.switch_cpus.iew.exec_nop                 22815                       # number of nop insts executed
system.switch_cpus.iew.exec_rate             0.837973                       # Inst execution rate
system.switch_cpus.iew.exec_refs           1176824393                       # number of memory reference insts executed
system.switch_cpus.iew.exec_stores          146185154                       # Number of stores executed
system.switch_cpus.iew.exec_swp                     0                       # number of swp insts executed
system.switch_cpus.iew.iewBlockCycles       327533139                       # Number of cycles IEW is blocking
system.switch_cpus.iew.iewDispLoadInsts     596275545                       # Number of dispatched load instructions
system.switch_cpus.iew.iewDispNonSpecInsts          226                       # Number of dispatched non-speculative instructions
system.switch_cpus.iew.iewDispSquashedInsts        19645                       # Number of squashed instructions skipped by dispatch
system.switch_cpus.iew.iewDispStoreInsts    146492469                       # Number of dispatched store instructions
system.switch_cpus.iew.iewDispatchedInsts   2087760188                       # Number of instructions dispatched to IQ
system.switch_cpus.iew.iewExecLoadInsts    1030639239                       # Number of load instructions executed
system.switch_cpus.iew.iewExecSquashedInsts       244036                       # Number of squashed instructions skipped in execute
system.switch_cpus.iew.iewExecutedInsts    2519434298                       # Number of executed instructions
system.switch_cpus.iew.iewIQFullEvents       18063469                       # Number of times the IQ has become full, causing a stall
system.switch_cpus.iew.iewIdleCycles                0                       # Number of cycles IEW is idle
system.switch_cpus.iew.iewLSQFullEvents     889396018                       # Number of times the LSQ has become full, causing a stall
system.switch_cpus.iew.iewSquashCycles         149282                       # Number of cycles IEW is squashing
system.switch_cpus.iew.iewUnblockCycles     928381219                       # Number of cycles IEW is unblocking
system.switch_cpus.iew.memOrderViolationEvents         9184                       # Number of memory order violations
system.switch_cpus.iew.predictedNotTakenIncorrect          947                       # Number of branches that were predicted not taken incorrectly
system.switch_cpus.iew.predictedTakenIncorrect        59677                       # Number of branches that were predicted taken incorrectly
system.switch_cpus.iew.wb_consumers        1722828681                       # num instructions consuming a value
system.switch_cpus.iew.wb_count            2084541485                       # cumulative count of insts written-back
system.switch_cpus.iew.wb_fanout             0.821169                       # average fanout of values written-back
system.switch_cpus.iew.wb_producers        1414732691                       # num instructions producing a value
system.switch_cpus.iew.wb_rate               0.693326                       # insts written-back per cycle
system.switch_cpus.iew.wb_sent             2084790131                       # cumulative count of insts sent to commit
system.switch_cpus.int_regfile_reads       2388029733                       # number of integer regfile reads
system.switch_cpus.int_regfile_writes       561002203                       # number of integer regfile writes
system.switch_cpus.ipc                       0.665207                       # IPC: Instructions Per Cycle
system.switch_cpus.ipc_total                 0.665207                       # IPC: Total IPC of All Threads
system.switch_cpus.iq.FU_type_0::No_OpClass           90      0.00%      0.00% # Type of FU issued
system.switch_cpus.iq.FU_type_0::IntAlu     360550776     14.31%     14.31% # Type of FU issued
system.switch_cpus.iq.FU_type_0::IntMult     34412781      1.37%     15.68% # Type of FU issued
system.switch_cpus.iq.FU_type_0::IntDiv      16527259      0.66%     16.33% # Type of FU issued
system.switch_cpus.iq.FU_type_0::FloatAdd    242019255      9.61%     25.94% # Type of FU issued
system.switch_cpus.iq.FU_type_0::FloatCmp            5      0.00%     25.94% # Type of FU issued
system.switch_cpus.iq.FU_type_0::FloatCvt            0      0.00%     25.94% # Type of FU issued
system.switch_cpus.iq.FU_type_0::FloatMult     76571805      3.04%     28.98% # Type of FU issued
system.switch_cpus.iq.FU_type_0::FloatMultAcc     91383195      3.63%     32.60% # Type of FU issued
system.switch_cpus.iq.FU_type_0::FloatDiv    159447597      6.33%     38.93% # Type of FU issued
system.switch_cpus.iq.FU_type_0::FloatMisc     13869498      0.55%     39.48% # Type of FU issued
system.switch_cpus.iq.FU_type_0::FloatSqrt            0      0.00%     39.48% # Type of FU issued
system.switch_cpus.iq.FU_type_0::SimdAdd            0      0.00%     39.48% # Type of FU issued
system.switch_cpus.iq.FU_type_0::SimdAddAcc            0      0.00%     39.48% # Type of FU issued
system.switch_cpus.iq.FU_type_0::SimdAlu           12      0.00%     39.48% # Type of FU issued
system.switch_cpus.iq.FU_type_0::SimdCmp           34      0.00%     39.48% # Type of FU issued
system.switch_cpus.iq.FU_type_0::SimdCvt            0      0.00%     39.48% # Type of FU issued
system.switch_cpus.iq.FU_type_0::SimdMisc        23342      0.00%     39.48% # Type of FU issued
system.switch_cpus.iq.FU_type_0::SimdMult            0      0.00%     39.48% # Type of FU issued
system.switch_cpus.iq.FU_type_0::SimdMultAcc            0      0.00%     39.48% # Type of FU issued
system.switch_cpus.iq.FU_type_0::SimdShift            7      0.00%     39.48% # Type of FU issued
system.switch_cpus.iq.FU_type_0::SimdShiftAcc            0      0.00%     39.48% # Type of FU issued
system.switch_cpus.iq.FU_type_0::SimdDiv            0      0.00%     39.48% # Type of FU issued
system.switch_cpus.iq.FU_type_0::SimdSqrt            0      0.00%     39.48% # Type of FU issued
system.switch_cpus.iq.FU_type_0::SimdFloatAdd    149148242      5.92%     45.40% # Type of FU issued
system.switch_cpus.iq.FU_type_0::SimdFloatAlu            0      0.00%     45.40% # Type of FU issued
system.switch_cpus.iq.FU_type_0::SimdFloatCmp            0      0.00%     45.40% # Type of FU issued
system.switch_cpus.iq.FU_type_0::SimdFloatCvt            0      0.00%     45.40% # Type of FU issued
system.switch_cpus.iq.FU_type_0::SimdFloatDiv     85227574      3.38%     48.78% # Type of FU issued
system.switch_cpus.iq.FU_type_0::SimdFloatMisc            0      0.00%     48.78% # Type of FU issued
system.switch_cpus.iq.FU_type_0::SimdFloatMult     14204592      0.56%     49.35% # Type of FU issued
system.switch_cpus.iq.FU_type_0::SimdFloatMultAcc     99432296      3.95%     53.29% # Type of FU issued
system.switch_cpus.iq.FU_type_0::SimdFloatSqrt            0      0.00%     53.29% # Type of FU issued
system.switch_cpus.iq.FU_type_0::SimdReduceAdd            0      0.00%     53.29% # Type of FU issued
system.switch_cpus.iq.FU_type_0::SimdReduceAlu            0      0.00%     53.29% # Type of FU issued
system.switch_cpus.iq.FU_type_0::SimdReduceCmp            0      0.00%     53.29% # Type of FU issued
system.switch_cpus.iq.FU_type_0::SimdFloatReduceAdd            0      0.00%     53.29% # Type of FU issued
system.switch_cpus.iq.FU_type_0::SimdFloatReduceCmp            0      0.00%     53.29% # Type of FU issued
system.switch_cpus.iq.FU_type_0::SimdAes            0      0.00%     53.29% # Type of FU issued
system.switch_cpus.iq.FU_type_0::SimdAesMix            0      0.00%     53.29% # Type of FU issued
system.switch_cpus.iq.FU_type_0::SimdSha1Hash            0      0.00%     53.29% # Type of FU issued
system.switch_cpus.iq.FU_type_0::SimdSha1Hash2            0      0.00%     53.29% # Type of FU issued
system.switch_cpus.iq.FU_type_0::SimdSha256Hash            0      0.00%     53.29% # Type of FU issued
system.switch_cpus.iq.FU_type_0::SimdSha256Hash2            0      0.00%     53.29% # Type of FU issued
system.switch_cpus.iq.FU_type_0::SimdShaSigma2            0      0.00%     53.29% # Type of FU issued
system.switch_cpus.iq.FU_type_0::SimdShaSigma3            0      0.00%     53.29% # Type of FU issued
system.switch_cpus.iq.FU_type_0::SimdPredAlu            0      0.00%     53.29% # Type of FU issued
system.switch_cpus.iq.FU_type_0::MemRead   1030667063     40.90%     94.20% # Type of FU issued
system.switch_cpus.iq.FU_type_0::MemWrite    146192919      5.80%    100.00% # Type of FU issued
system.switch_cpus.iq.FU_type_0::FloatMemRead            0      0.00%    100.00% # Type of FU issued
system.switch_cpus.iq.FU_type_0::FloatMemWrite            0      0.00%    100.00% # Type of FU issued
system.switch_cpus.iq.FU_type_0::IprAccess            0      0.00%    100.00% # Type of FU issued
system.switch_cpus.iq.FU_type_0::InstPrefetch            0      0.00%    100.00% # Type of FU issued
system.switch_cpus.iq.FU_type_0::total     2519678342                       # Type of FU issued
system.switch_cpus.iq.fp_alu_accesses               0                       # Number of floating point alu accesses
system.switch_cpus.iq.fp_inst_queue_reads            0                       # Number of floating instruction queue reads
system.switch_cpus.iq.fp_inst_queue_wakeup_accesses            0                       # Number of floating instruction queue wakeup accesses
system.switch_cpus.iq.fp_inst_queue_writes            0                       # Number of floating instruction queue writes
system.switch_cpus.iq.fu_busy_cnt          2632127865                       # FU busy when requested
system.switch_cpus.iq.fu_busy_rate           1.044629                       # FU busy rate (busy events/executed inst)
system.switch_cpus.iq.fu_full::No_OpClass            0      0.00%      0.00% # attempts to use FU when none available
system.switch_cpus.iq.fu_full::IntAlu           15210      0.00%      0.00% # attempts to use FU when none available
system.switch_cpus.iq.fu_full::IntMult       27357346      1.04%      1.04% # attempts to use FU when none available
system.switch_cpus.iq.fu_full::IntDiv        37619157      1.43%      2.47% # attempts to use FU when none available
system.switch_cpus.iq.fu_full::FloatAdd         10472      0.00%      2.47% # attempts to use FU when none available
system.switch_cpus.iq.fu_full::FloatCmp             0      0.00%      2.47% # attempts to use FU when none available
system.switch_cpus.iq.fu_full::FloatCvt             0      0.00%      2.47% # attempts to use FU when none available
system.switch_cpus.iq.fu_full::FloatMult    589696373     22.40%     24.87% # attempts to use FU when none available
system.switch_cpus.iq.fu_full::FloatMultAcc    345893561     13.14%     38.01% # attempts to use FU when none available
system.switch_cpus.iq.fu_full::FloatDiv     857871571     32.59%     70.61% # attempts to use FU when none available
system.switch_cpus.iq.fu_full::FloatMisc    665964672     25.30%     95.91% # attempts to use FU when none available
system.switch_cpus.iq.fu_full::FloatSqrt            0      0.00%     95.91% # attempts to use FU when none available
system.switch_cpus.iq.fu_full::SimdAdd              0      0.00%     95.91% # attempts to use FU when none available
system.switch_cpus.iq.fu_full::SimdAddAcc            0      0.00%     95.91% # attempts to use FU when none available
system.switch_cpus.iq.fu_full::SimdAlu              0      0.00%     95.91% # attempts to use FU when none available
system.switch_cpus.iq.fu_full::SimdCmp              0      0.00%     95.91% # attempts to use FU when none available
system.switch_cpus.iq.fu_full::SimdCvt              0      0.00%     95.91% # attempts to use FU when none available
system.switch_cpus.iq.fu_full::SimdMisc             0      0.00%     95.91% # attempts to use FU when none available
system.switch_cpus.iq.fu_full::SimdMult             0      0.00%     95.91% # attempts to use FU when none available
system.switch_cpus.iq.fu_full::SimdMultAcc            0      0.00%     95.91% # attempts to use FU when none available
system.switch_cpus.iq.fu_full::SimdShift            0      0.00%     95.91% # attempts to use FU when none available
system.switch_cpus.iq.fu_full::SimdShiftAcc            0      0.00%     95.91% # attempts to use FU when none available
system.switch_cpus.iq.fu_full::SimdDiv              0      0.00%     95.91% # attempts to use FU when none available
system.switch_cpus.iq.fu_full::SimdSqrt             0      0.00%     95.91% # attempts to use FU when none available
system.switch_cpus.iq.fu_full::SimdFloatAdd      1120418      0.04%     95.95% # attempts to use FU when none available
system.switch_cpus.iq.fu_full::SimdFloatAlu            0      0.00%     95.95% # attempts to use FU when none available
system.switch_cpus.iq.fu_full::SimdFloatCmp            0      0.00%     95.95% # attempts to use FU when none available
system.switch_cpus.iq.fu_full::SimdFloatCvt            0      0.00%     95.95% # attempts to use FU when none available
system.switch_cpus.iq.fu_full::SimdFloatDiv       899261      0.03%     95.99% # attempts to use FU when none available
system.switch_cpus.iq.fu_full::SimdFloatMisc            0      0.00%     95.99% # attempts to use FU when none available
system.switch_cpus.iq.fu_full::SimdFloatMult         3175      0.00%     95.99% # attempts to use FU when none available
system.switch_cpus.iq.fu_full::SimdFloatMultAcc      2795878      0.11%     96.09% # attempts to use FU when none available
system.switch_cpus.iq.fu_full::SimdFloatSqrt            0      0.00%     96.09% # attempts to use FU when none available
system.switch_cpus.iq.fu_full::SimdReduceAdd            0      0.00%     96.09% # attempts to use FU when none available
system.switch_cpus.iq.fu_full::SimdReduceAlu            0      0.00%     96.09% # attempts to use FU when none available
system.switch_cpus.iq.fu_full::SimdReduceCmp            0      0.00%     96.09% # attempts to use FU when none available
system.switch_cpus.iq.fu_full::SimdFloatReduceAdd            0      0.00%     96.09% # attempts to use FU when none available
system.switch_cpus.iq.fu_full::SimdFloatReduceCmp            0      0.00%     96.09% # attempts to use FU when none available
system.switch_cpus.iq.fu_full::SimdAes              0      0.00%     96.09% # attempts to use FU when none available
system.switch_cpus.iq.fu_full::SimdAesMix            0      0.00%     96.09% # attempts to use FU when none available
system.switch_cpus.iq.fu_full::SimdSha1Hash            0      0.00%     96.09% # attempts to use FU when none available
system.switch_cpus.iq.fu_full::SimdSha1Hash2            0      0.00%     96.09% # attempts to use FU when none available
system.switch_cpus.iq.fu_full::SimdSha256Hash            0      0.00%     96.09% # attempts to use FU when none available
system.switch_cpus.iq.fu_full::SimdSha256Hash2            0      0.00%     96.09% # attempts to use FU when none available
system.switch_cpus.iq.fu_full::SimdShaSigma2            0      0.00%     96.09% # attempts to use FU when none available
system.switch_cpus.iq.fu_full::SimdShaSigma3            0      0.00%     96.09% # attempts to use FU when none available
system.switch_cpus.iq.fu_full::SimdPredAlu            0      0.00%     96.09% # attempts to use FU when none available
system.switch_cpus.iq.fu_full::MemRead      101116111      3.84%     99.93% # attempts to use FU when none available
system.switch_cpus.iq.fu_full::MemWrite       1764660      0.07%    100.00% # attempts to use FU when none available
system.switch_cpus.iq.fu_full::FloatMemRead            0      0.00%    100.00% # attempts to use FU when none available
system.switch_cpus.iq.fu_full::FloatMemWrite            0      0.00%    100.00% # attempts to use FU when none available
system.switch_cpus.iq.fu_full::IprAccess            0      0.00%    100.00% # attempts to use FU when none available
system.switch_cpus.iq.fu_full::InstPrefetch            0      0.00%    100.00% # attempts to use FU when none available
system.switch_cpus.iq.int_alu_accesses      879974089                       # Number of integer alu accesses
system.switch_cpus.iq.int_inst_queue_reads   4658767907                       # Number of integer instruction queue reads
system.switch_cpus.iq.int_inst_queue_wakeup_accesses    616380454                       # Number of integer instruction queue wakeup accesses
system.switch_cpus.iq.int_inst_queue_writes    620487056                       # Number of integer instruction queue writes
system.switch_cpus.iq.iqInstsAdded         2087737147                       # Number of instructions added to the IQ (excludes non-spec)
system.switch_cpus.iq.iqInstsIssued        2519678342                       # Number of instructions issued
system.switch_cpus.iq.iqNonSpecInstsAdded          226                       # Number of non-speculative instructions added to the IQ
system.switch_cpus.iq.iqSquashedInstsExamined     11760960                       # Number of squashed instructions iterated over during squash; mainly for profiling
system.switch_cpus.iq.iqSquashedInstsIssued       692763                       # Number of squashed instructions issued
system.switch_cpus.iq.iqSquashedNonSpecRemoved          104                       # Number of squashed non-spec instructions that were removed
system.switch_cpus.iq.iqSquashedOperandsExamined     11276726                       # Number of squashed operands that are examined and possibly removed from graph
system.switch_cpus.iq.issued_per_cycle::samples   3006462797                       # Number of insts issued each cycle
system.switch_cpus.iq.issued_per_cycle::mean     0.838087                       # Number of insts issued each cycle
system.switch_cpus.iq.issued_per_cycle::stdev     1.553819                       # Number of insts issued each cycle
system.switch_cpus.iq.issued_per_cycle::underflows            0      0.00%      0.00% # Number of insts issued each cycle
system.switch_cpus.iq.issued_per_cycle::0   2027003135     67.42%     67.42% # Number of insts issued each cycle
system.switch_cpus.iq.issued_per_cycle::1    376169327     12.51%     79.93% # Number of insts issued each cycle
system.switch_cpus.iq.issued_per_cycle::2    211389201      7.03%     86.96% # Number of insts issued each cycle
system.switch_cpus.iq.issued_per_cycle::3    103422627      3.44%     90.40% # Number of insts issued each cycle
system.switch_cpus.iq.issued_per_cycle::4    135110491      4.49%     94.90% # Number of insts issued each cycle
system.switch_cpus.iq.issued_per_cycle::5     85166186      2.83%     97.73% # Number of insts issued each cycle
system.switch_cpus.iq.issued_per_cycle::6     41687137      1.39%     99.12% # Number of insts issued each cycle
system.switch_cpus.iq.issued_per_cycle::7     18050528      0.60%     99.72% # Number of insts issued each cycle
system.switch_cpus.iq.issued_per_cycle::8      8464165      0.28%    100.00% # Number of insts issued each cycle
system.switch_cpus.iq.issued_per_cycle::overflows            0      0.00%    100.00% # Number of insts issued each cycle
system.switch_cpus.iq.issued_per_cycle::min_value            0                       # Number of insts issued each cycle
system.switch_cpus.iq.issued_per_cycle::max_value            8                       # Number of insts issued each cycle
system.switch_cpus.iq.issued_per_cycle::total   3006462797                       # Number of insts issued each cycle
system.switch_cpus.iq.rate                   0.838054                       # Inst issue rate
system.switch_cpus.iq.vec_alu_accesses     4271832028                       # Number of vector alu accesses
system.switch_cpus.iq.vec_inst_queue_reads   6019872194                       # Number of vector instruction queue reads
system.switch_cpus.iq.vec_inst_queue_wakeup_accesses   1468161031                       # Number of vector instruction queue wakeup accesses
system.switch_cpus.iq.vec_inst_queue_writes   1479020192                       # Number of vector instruction queue writes
system.switch_cpus.memDep0.conflictingLoads      8538082                       # Number of conflicting loads.
system.switch_cpus.memDep0.conflictingStores      2904397                       # Number of conflicting stores.
system.switch_cpus.memDep0.insertedLoads    596275545                       # Number of loads inserted to the mem dependence unit.
system.switch_cpus.memDep0.insertedStores    146492469                       # Number of stores inserted to the mem dependence unit.
system.switch_cpus.misc_regfile_reads      9828988820                       # number of misc regfile reads
system.switch_cpus.misc_regfile_writes      913766192                       # number of misc regfile writes
system.switch_cpus.numCycles               3006583395                       # number of cpu cycles simulated
system.switch_cpus.numWorkItemsCompleted            0                       # number of work items this cpu completed
system.switch_cpus.numWorkItemsStarted              0                       # number of work items this cpu started
system.switch_cpus.pred_regfile_reads              60                       # number of predicate regfile reads
system.switch_cpus.pred_regfile_writes             20                       # number of predicate regfile writes
system.switch_cpus.timesIdled                    1067                       # Number of times that the entire CPU went into an idle state and unscheduled itself
system.switch_cpus.vec_regfile_reads       2111471381                       # number of vector regfile reads
system.switch_cpus.vec_regfile_writes      1390704053                       # number of vector regfile writes
system.tol2bus.snoop_filter.hit_multi_requests            2                       # Number of requests hitting in the snoop filter with multiple (>1) holders of the requested data.
system.tol2bus.snoop_filter.hit_multi_snoops            2                       # Number of snoops hitting in the snoop filter with multiple (>1) holders of the requested data.
system.tol2bus.snoop_filter.hit_single_requests     73734529                       # Number of requests hitting in the snoop filter with a single holder of the requested data.
system.tol2bus.snoop_filter.hit_single_snoops     28418847                       # Number of snoops hitting in the snoop filter with a single holder of the requested data.
system.tol2bus.snoop_filter.tot_requests    137983133                       # Total number of requests made to the snoop filter.
system.tol2bus.snoop_filter.tot_snoops       28418849                       # Total number of snoops made to the snoop filter.
system.clk_domain.clock                          1000                       # Clock period in ticks
system.cpu.dcache.demand_hits::.cpu.data            1                       # number of demand (read+write) hits
system.cpu.dcache.demand_hits::.switch_cpus.data    663005899                       # number of demand (read+write) hits
system.cpu.dcache.demand_hits::total        663005900                       # number of demand (read+write) hits
system.cpu.dcache.overall_hits::.cpu.data            1                       # number of overall hits
system.cpu.dcache.overall_hits::.switch_cpus.data    663005899                       # number of overall hits
system.cpu.dcache.overall_hits::total       663005900                       # number of overall hits
system.cpu.dcache.demand_misses::.cpu.data            4                       # number of demand (read+write) misses
system.cpu.dcache.demand_misses::.switch_cpus.data     94676776                       # number of demand (read+write) misses
system.cpu.dcache.demand_misses::total       94676780                       # number of demand (read+write) misses
system.cpu.dcache.overall_misses::.cpu.data            4                       # number of overall misses
system.cpu.dcache.overall_misses::.switch_cpus.data     94676776                       # number of overall misses
system.cpu.dcache.overall_misses::total      94676780                       # number of overall misses
system.cpu.dcache.demand_miss_latency::.switch_cpus.data 5183259703808                       # number of demand (read+write) miss cycles
system.cpu.dcache.demand_miss_latency::total 5183259703808                       # number of demand (read+write) miss cycles
system.cpu.dcache.overall_miss_latency::.switch_cpus.data 5183259703808                       # number of overall miss cycles
system.cpu.dcache.overall_miss_latency::total 5183259703808                       # number of overall miss cycles
system.cpu.dcache.demand_accesses::.cpu.data            5                       # number of demand (read+write) accesses
system.cpu.dcache.demand_accesses::.switch_cpus.data    757682675                       # number of demand (read+write) accesses
system.cpu.dcache.demand_accesses::total    757682680                       # number of demand (read+write) accesses
system.cpu.dcache.overall_accesses::.cpu.data            5                       # number of overall (read+write) accesses
system.cpu.dcache.overall_accesses::.switch_cpus.data    757682675                       # number of overall (read+write) accesses
system.cpu.dcache.overall_accesses::total    757682680                       # number of overall (read+write) accesses
system.cpu.dcache.demand_miss_rate::.cpu.data     0.800000                       # miss rate for demand accesses
system.cpu.dcache.demand_miss_rate::.switch_cpus.data     0.124956                       # miss rate for demand accesses
system.cpu.dcache.demand_miss_rate::total     0.124956                       # miss rate for demand accesses
system.cpu.dcache.overall_miss_rate::.cpu.data     0.800000                       # miss rate for overall accesses
system.cpu.dcache.overall_miss_rate::.switch_cpus.data     0.124956                       # miss rate for overall accesses
system.cpu.dcache.overall_miss_rate::total     0.124956                       # miss rate for overall accesses
system.cpu.dcache.demand_avg_miss_latency::.switch_cpus.data 54746.896998                       # average overall miss latency
system.cpu.dcache.demand_avg_miss_latency::total 54746.894685                       # average overall miss latency
system.cpu.dcache.overall_avg_miss_latency::.switch_cpus.data 54746.896998                       # average overall miss latency
system.cpu.dcache.overall_avg_miss_latency::total 54746.894685                       # average overall miss latency
system.cpu.dcache.blocked_cycles::no_mshrs   1224369005                       # number of cycles access was blocked
system.cpu.dcache.blocked_cycles::no_targets            0                       # number of cycles access was blocked
system.cpu.dcache.blocked::no_mshrs          43765058                       # number of cycles access was blocked
system.cpu.dcache.blocked::no_targets               0                       # number of cycles access was blocked
system.cpu.dcache.avg_blocked_cycles::no_mshrs    27.975948                       # average number of cycles each access was blocked
system.cpu.dcache.avg_blocked_cycles::no_targets          nan                       # average number of cycles each access was blocked
system.cpu.dcache.ghost_timestamp_misses      9420179                       # number of times timestamp policy causes a block to be inaccessible
system.cpu.dcache.ghost_commits              48480806                       # number of cache lines moved from ghost to main
system.cpu.dcache.same_leapfrogs              2422863                       # number of times leapfrogging occurs with a shared MSHR request
system.cpu.dcache.writebacks::.writebacks    106610126                       # number of writebacks
system.cpu.dcache.writebacks::total         106610126                       # number of writebacks
system.cpu.dcache.demand_mshr_hits::.switch_cpus.data     20942958                       # number of demand (read+write) MSHR hits
system.cpu.dcache.demand_mshr_hits::total     20942958                       # number of demand (read+write) MSHR hits
system.cpu.dcache.overall_mshr_hits::.switch_cpus.data     20942958                       # number of overall MSHR hits
system.cpu.dcache.overall_mshr_hits::total     20942958                       # number of overall MSHR hits
system.cpu.dcache.demand_mshr_misses::.switch_cpus.data     73733818                       # number of demand (read+write) MSHR misses
system.cpu.dcache.demand_mshr_misses::total     73733818                       # number of demand (read+write) MSHR misses
system.cpu.dcache.overall_mshr_misses::.switch_cpus.data     73733818                       # number of overall MSHR misses
system.cpu.dcache.overall_mshr_misses::total     73733818                       # number of overall MSHR misses
system.cpu.dcache.demand_mshr_miss_latency::.switch_cpus.data 3824452245641                       # number of demand (read+write) MSHR miss cycles
system.cpu.dcache.demand_mshr_miss_latency::total 3824452245641                       # number of demand (read+write) MSHR miss cycles
system.cpu.dcache.overall_mshr_miss_latency::.switch_cpus.data 3824452245641                       # number of overall MSHR miss cycles
system.cpu.dcache.overall_mshr_miss_latency::total 3824452245641                       # number of overall MSHR miss cycles
system.cpu.dcache.demand_mshr_miss_rate::.switch_cpus.data     0.097315                       # mshr miss rate for demand accesses
system.cpu.dcache.demand_mshr_miss_rate::total     0.097315                       # mshr miss rate for demand accesses
system.cpu.dcache.overall_mshr_miss_rate::.switch_cpus.data     0.097315                       # mshr miss rate for overall accesses
system.cpu.dcache.overall_mshr_miss_rate::total     0.097315                       # mshr miss rate for overall accesses
system.cpu.dcache.demand_avg_mshr_miss_latency::.switch_cpus.data 51868.360399                       # average overall mshr miss latency
system.cpu.dcache.demand_avg_mshr_miss_latency::total 51868.360399                       # average overall mshr miss latency
system.cpu.dcache.overall_avg_mshr_miss_latency::.switch_cpus.data 51868.360399                       # average overall mshr miss latency
system.cpu.dcache.overall_avg_mshr_miss_latency::total 51868.360399                       # average overall mshr miss latency
system.cpu.dcache.replacements               59333232                       # number of replacements
system.cpu.dcache.ReadReq_hits::.cpu.data            1                       # number of ReadReq hits
system.cpu.dcache.ReadReq_hits::.switch_cpus.data    540492240                       # number of ReadReq hits
system.cpu.dcache.ReadReq_hits::total       540492241                       # number of ReadReq hits
system.cpu.dcache.ReadReq_misses::.cpu.data            4                       # number of ReadReq misses
system.cpu.dcache.ReadReq_misses::.switch_cpus.data     71648483                       # number of ReadReq misses
system.cpu.dcache.ReadReq_misses::total      71648487                       # number of ReadReq misses
system.cpu.dcache.ReadReq_miss_latency::.switch_cpus.data 3541913396000                       # number of ReadReq miss cycles
system.cpu.dcache.ReadReq_miss_latency::total 3541913396000                       # number of ReadReq miss cycles
system.cpu.dcache.ReadReq_accesses::.cpu.data            5                       # number of ReadReq accesses(hits+misses)
system.cpu.dcache.ReadReq_accesses::.switch_cpus.data    612140723                       # number of ReadReq accesses(hits+misses)
system.cpu.dcache.ReadReq_accesses::total    612140728                       # number of ReadReq accesses(hits+misses)
system.cpu.dcache.ReadReq_miss_rate::.cpu.data     0.800000                       # miss rate for ReadReq accesses
system.cpu.dcache.ReadReq_miss_rate::.switch_cpus.data     0.117046                       # miss rate for ReadReq accesses
system.cpu.dcache.ReadReq_miss_rate::total     0.117046                       # miss rate for ReadReq accesses
system.cpu.dcache.ReadReq_avg_miss_latency::.switch_cpus.data 49434.590206                       # average ReadReq miss latency
system.cpu.dcache.ReadReq_avg_miss_latency::total 49434.587446                       # average ReadReq miss latency
system.cpu.dcache.ReadReq_mshr_hits::.switch_cpus.data      7629199                       # number of ReadReq MSHR hits
system.cpu.dcache.ReadReq_mshr_hits::total      7629199                       # number of ReadReq MSHR hits
system.cpu.dcache.ReadReq_mshr_misses::.switch_cpus.data     64019284                       # number of ReadReq MSHR misses
system.cpu.dcache.ReadReq_mshr_misses::total     64019284                       # number of ReadReq MSHR misses
system.cpu.dcache.ReadReq_mshr_miss_latency::.switch_cpus.data 3117774143500                       # number of ReadReq MSHR miss cycles
system.cpu.dcache.ReadReq_mshr_miss_latency::total 3117774143500                       # number of ReadReq MSHR miss cycles
system.cpu.dcache.ReadReq_mshr_miss_rate::.switch_cpus.data     0.104583                       # mshr miss rate for ReadReq accesses
system.cpu.dcache.ReadReq_mshr_miss_rate::total     0.104583                       # mshr miss rate for ReadReq accesses
system.cpu.dcache.ReadReq_avg_mshr_miss_latency::.switch_cpus.data 48700.546909                       # average ReadReq mshr miss latency
system.cpu.dcache.ReadReq_avg_mshr_miss_latency::total 48700.546909                       # average ReadReq mshr miss latency
system.cpu.dcache.WriteReq_hits::.switch_cpus.data    122513659                       # number of WriteReq hits
system.cpu.dcache.WriteReq_hits::total      122513659                       # number of WriteReq hits
system.cpu.dcache.WriteReq_misses::.switch_cpus.data     23028224                       # number of WriteReq misses
system.cpu.dcache.WriteReq_misses::total     23028224                       # number of WriteReq misses
system.cpu.dcache.WriteReq_miss_latency::.switch_cpus.data 1641343897364                       # number of WriteReq miss cycles
system.cpu.dcache.WriteReq_miss_latency::total 1641343897364                       # number of WriteReq miss cycles
system.cpu.dcache.WriteReq_accesses::.switch_cpus.data    145541883                       # number of WriteReq accesses(hits+misses)
system.cpu.dcache.WriteReq_accesses::total    145541883                       # number of WriteReq accesses(hits+misses)
system.cpu.dcache.WriteReq_miss_rate::.switch_cpus.data     0.158224                       # miss rate for WriteReq accesses
system.cpu.dcache.WriteReq_miss_rate::total     0.158224                       # miss rate for WriteReq accesses
system.cpu.dcache.WriteReq_avg_miss_latency::.switch_cpus.data 71275.314039                       # average WriteReq miss latency
system.cpu.dcache.WriteReq_avg_miss_latency::total 71275.314039                       # average WriteReq miss latency
system.cpu.dcache.WriteReq_mshr_hits::.switch_cpus.data     13313759                       # number of WriteReq MSHR hits
system.cpu.dcache.WriteReq_mshr_hits::total     13313759                       # number of WriteReq MSHR hits
system.cpu.dcache.WriteReq_mshr_misses::.switch_cpus.data      9714465                       # number of WriteReq MSHR misses
system.cpu.dcache.WriteReq_mshr_misses::total      9714465                       # number of WriteReq MSHR misses
system.cpu.dcache.WriteReq_mshr_miss_latency::.switch_cpus.data 706675760697                       # number of WriteReq MSHR miss cycles
system.cpu.dcache.WriteReq_mshr_miss_latency::total 706675760697                       # number of WriteReq MSHR miss cycles
system.cpu.dcache.WriteReq_mshr_miss_rate::.switch_cpus.data     0.066747                       # mshr miss rate for WriteReq accesses
system.cpu.dcache.WriteReq_mshr_miss_rate::total     0.066747                       # mshr miss rate for WriteReq accesses
system.cpu.dcache.WriteReq_avg_mshr_miss_latency::.switch_cpus.data 72744.691622                       # average WriteReq mshr miss latency
system.cpu.dcache.WriteReq_avg_mshr_miss_latency::total 72744.691622                       # average WriteReq mshr miss latency
system.cpu.dcache.WriteLineReq_misses::.switch_cpus.data           69                       # number of WriteLineReq misses
system.cpu.dcache.WriteLineReq_misses::total           69                       # number of WriteLineReq misses
system.cpu.dcache.WriteLineReq_miss_latency::.switch_cpus.data      2410444                       # number of WriteLineReq miss cycles
system.cpu.dcache.WriteLineReq_miss_latency::total      2410444                       # number of WriteLineReq miss cycles
system.cpu.dcache.WriteLineReq_accesses::.switch_cpus.data           69                       # number of WriteLineReq accesses(hits+misses)
system.cpu.dcache.WriteLineReq_accesses::total           69                       # number of WriteLineReq accesses(hits+misses)
system.cpu.dcache.WriteLineReq_miss_rate::.switch_cpus.data            1                       # miss rate for WriteLineReq accesses
system.cpu.dcache.WriteLineReq_miss_rate::total            1                       # miss rate for WriteLineReq accesses
system.cpu.dcache.WriteLineReq_avg_miss_latency::.switch_cpus.data 34933.971014                       # average WriteLineReq miss latency
system.cpu.dcache.WriteLineReq_avg_miss_latency::total 34933.971014                       # average WriteLineReq miss latency
system.cpu.dcache.WriteLineReq_mshr_misses::.switch_cpus.data           69                       # number of WriteLineReq MSHR misses
system.cpu.dcache.WriteLineReq_mshr_misses::total           69                       # number of WriteLineReq MSHR misses
system.cpu.dcache.WriteLineReq_mshr_miss_latency::.switch_cpus.data      2341444                       # number of WriteLineReq MSHR miss cycles
system.cpu.dcache.WriteLineReq_mshr_miss_latency::total      2341444                       # number of WriteLineReq MSHR miss cycles
system.cpu.dcache.WriteLineReq_mshr_miss_rate::.switch_cpus.data            1                       # mshr miss rate for WriteLineReq accesses
system.cpu.dcache.WriteLineReq_mshr_miss_rate::total            1                       # mshr miss rate for WriteLineReq accesses
system.cpu.dcache.WriteLineReq_avg_mshr_miss_latency::.switch_cpus.data 33933.971014                       # average WriteLineReq mshr miss latency
system.cpu.dcache.WriteLineReq_avg_mshr_miss_latency::total 33933.971014                       # average WriteLineReq mshr miss latency
system.cpu.dcache.SwapReq_hits::.switch_cpus.data           24                       # number of SwapReq hits
system.cpu.dcache.SwapReq_hits::total              24                       # number of SwapReq hits
system.cpu.dcache.SwapReq_misses::.switch_cpus.data            2                       # number of SwapReq misses
system.cpu.dcache.SwapReq_misses::total             2                       # number of SwapReq misses
system.cpu.dcache.SwapReq_miss_latency::.switch_cpus.data        68000                       # number of SwapReq miss cycles
system.cpu.dcache.SwapReq_miss_latency::total        68000                       # number of SwapReq miss cycles
system.cpu.dcache.SwapReq_accesses::.switch_cpus.data           26                       # number of SwapReq accesses(hits+misses)
system.cpu.dcache.SwapReq_accesses::total           26                       # number of SwapReq accesses(hits+misses)
system.cpu.dcache.SwapReq_miss_rate::.switch_cpus.data     0.076923                       # miss rate for SwapReq accesses
system.cpu.dcache.SwapReq_miss_rate::total     0.076923                       # miss rate for SwapReq accesses
system.cpu.dcache.SwapReq_avg_miss_latency::.switch_cpus.data        34000                       # average SwapReq miss latency
system.cpu.dcache.SwapReq_avg_miss_latency::total        34000                       # average SwapReq miss latency
system.cpu.dcache.SwapReq_mshr_misses::.switch_cpus.data            2                       # number of SwapReq MSHR misses
system.cpu.dcache.SwapReq_mshr_misses::total            2                       # number of SwapReq MSHR misses
system.cpu.dcache.SwapReq_mshr_miss_latency::.switch_cpus.data        66000                       # number of SwapReq MSHR miss cycles
system.cpu.dcache.SwapReq_mshr_miss_latency::total        66000                       # number of SwapReq MSHR miss cycles
system.cpu.dcache.SwapReq_mshr_miss_rate::.switch_cpus.data     0.076923                       # mshr miss rate for SwapReq accesses
system.cpu.dcache.SwapReq_mshr_miss_rate::total     0.076923                       # mshr miss rate for SwapReq accesses
system.cpu.dcache.SwapReq_avg_mshr_miss_latency::.switch_cpus.data        33000                       # average SwapReq mshr miss latency
system.cpu.dcache.SwapReq_avg_mshr_miss_latency::total        33000                       # average SwapReq mshr miss latency
system.cpu.dcache.ghosttags.tagsinuse    -23543745.522230                       # Cycle average of tags in use
system.cpu.dcache.ghosttags.total_refs              0                       # Total number of references to valid blocks.
system.cpu.dcache.ghosttags.sampled_refs            0                       # Sample count of references to valid blocks.
system.cpu.dcache.ghosttags.avg_refs              nan                       # Average number of references to valid blocks.
system.cpu.dcache.ghosttags.warmup_cycle 6004359622500                       # Cycle when the warmup percentage was hit.
system.cpu.dcache.ghosttags.occ_blocks::.switch_cpus.data 24850553.316029                       # Average occupied blocks per requestor
system.cpu.dcache.ghosttags.occ_percent::.switch_cpus.data 776579.791126                       # Average percentage of cache occupancy
system.cpu.dcache.ghosttags.occ_percent::total 776579.791126                       # Average percentage of cache occupancy
system.cpu.dcache.ghosttags.tag_accesses    255328660                       # Number of tag accesses
system.cpu.dcache.ghosttags.data_accesses    255328660                       # Number of data accesses
system.cpu.dcache.ghosttags.repl_invalid            0                       # Number of initial replacements
system.cpu.dcache.ghosttags.repl_valid_tag            0                       # Number of local replacements
system.cpu.dcache.ghosttags.repl_valid_data            0                       # Number of global replacements
system.cpu.dcache.ghosttags.power_state.pwrStateResidencyTicks::UNDEFINED 7507651091000                       # Cumulative time (in ticks) in various power states
system.cpu.dcache.power_state.pwrStateResidencyTicks::UNDEFINED 7507651091000                       # Cumulative time (in ticks) in various power states
system.cpu.dcache.tags.tagsinuse         -21375026.977581                       # Cycle average of tags in use
system.cpu.dcache.tags.total_refs           771148237                       # Total number of references to valid blocks.
system.cpu.dcache.tags.sampled_refs         107894289                       # Sample count of references to valid blocks.
system.cpu.dcache.tags.avg_refs              7.147257                       # Average number of references to valid blocks.
system.cpu.dcache.tags.warmup_cycle      6004359385500                       # Cycle when the warmup percentage was hit.
system.cpu.dcache.tags.occ_blocks::.cpu.data     0.524673                       # Average occupied blocks per requestor
system.cpu.dcache.tags.occ_blocks::.switch_cpus.data -21375027.502254                       # Average occupied blocks per requestor
system.cpu.dcache.tags.occ_percent::.cpu.data     0.001025                       # Average percentage of cache occupancy
system.cpu.dcache.tags.occ_percent::.switch_cpus.data -41748.100590                       # Average percentage of cache occupancy
system.cpu.dcache.tags.occ_percent::total -41748.099566                       # Average percentage of cache occupancy
system.cpu.dcache.tags.occ_task_id_blocks::1024          512                       # Occupied blocks per task id
system.cpu.dcache.tags.age_task_id_blocks_1024::0          375                       # Occupied blocks per task id
system.cpu.dcache.tags.age_task_id_blocks_1024::1          136                       # Occupied blocks per task id
system.cpu.dcache.tags.age_task_id_blocks_1024::2            1                       # Occupied blocks per task id
system.cpu.dcache.tags.occ_task_id_percent::1024            1                       # Percentage of cache occupancy per task id
system.cpu.dcache.tags.tag_accesses        6119591480                       # Number of tag accesses
system.cpu.dcache.tags.data_accesses       6119591480                       # Number of data accesses
system.cpu.dcache.tags.repl_invalid                 0                       # Number of initial replacements
system.cpu.dcache.tags.repl_valid_tag               0                       # Number of local replacements
system.cpu.dcache.tags.repl_valid_data              0                       # Number of global replacements
system.cpu.dcache.tags.power_state.pwrStateResidencyTicks::UNDEFINED 7507651091000                       # Cumulative time (in ticks) in various power states
system.cpu.dtb.instHits                             0                       # ITB inst hits
system.cpu.dtb.instMisses                           0                       # ITB inst misses
system.cpu.dtb.readHits                             0                       # DTB read hits
system.cpu.dtb.readMisses                           0                       # DTB read misses
system.cpu.dtb.writeHits                            0                       # DTB write hits
system.cpu.dtb.writeMisses                          0                       # DTB write misses
system.cpu.dtb.inserts                              0                       # Number of times an entry is inserted into the TLB
system.cpu.dtb.flushTlb                             2                       # Number of times complete TLB was flushed
system.cpu.dtb.flushTlbMva                          0                       # Number of times TLB was flushed by MVA
system.cpu.dtb.flushTlbMvaAsid                      0                       # Number of times TLB was flushed by MVA & ASID
system.cpu.dtb.flushTlbAsid                         0                       # Number of times TLB was flushed by ASID
system.cpu.dtb.flushedEntries                       0                       # Number of entries that have been flushed from TLB
system.cpu.dtb.alignFaults                          0                       # Number of TLB faults due to alignment restrictions
system.cpu.dtb.prefetchFaults                       0                       # Number of TLB faults due to prefetch
system.cpu.dtb.domainFaults                         0                       # Number of TLB faults due to domain restrictions
system.cpu.dtb.permsFaults                          0                       # Number of TLB faults due to permissions restrictions
system.cpu.dtb.readAccesses                         0                       # DTB read accesses
system.cpu.dtb.writeAccesses                        0                       # DTB write accesses
system.cpu.dtb.instAccesses                         0                       # ITB inst accesses
system.cpu.dtb.hits                                 0                       # Total TLB (inst and data) hits
system.cpu.dtb.misses                               0                       # Total TLB (inst and data) misses
system.cpu.dtb.accesses                             0                       # Total TLB (inst and data) accesses
system.cpu.dtb.stage2_mmu.stage2_tlb.instHits            0                       # ITB inst hits
system.cpu.dtb.stage2_mmu.stage2_tlb.instMisses            0                       # ITB inst misses
system.cpu.dtb.stage2_mmu.stage2_tlb.readHits            0                       # DTB read hits
system.cpu.dtb.stage2_mmu.stage2_tlb.readMisses            0                       # DTB read misses
system.cpu.dtb.stage2_mmu.stage2_tlb.writeHits            0                       # DTB write hits
system.cpu.dtb.stage2_mmu.stage2_tlb.writeMisses            0                       # DTB write misses
system.cpu.dtb.stage2_mmu.stage2_tlb.inserts            0                       # Number of times an entry is inserted into the TLB
system.cpu.dtb.stage2_mmu.stage2_tlb.flushTlb            0                       # Number of times complete TLB was flushed
system.cpu.dtb.stage2_mmu.stage2_tlb.flushTlbMva            0                       # Number of times TLB was flushed by MVA
system.cpu.dtb.stage2_mmu.stage2_tlb.flushTlbMvaAsid            0                       # Number of times TLB was flushed by MVA & ASID
system.cpu.dtb.stage2_mmu.stage2_tlb.flushTlbAsid            0                       # Number of times TLB was flushed by ASID
system.cpu.dtb.stage2_mmu.stage2_tlb.flushedEntries            0                       # Number of entries that have been flushed from TLB
system.cpu.dtb.stage2_mmu.stage2_tlb.alignFaults            0                       # Number of TLB faults due to alignment restrictions
system.cpu.dtb.stage2_mmu.stage2_tlb.prefetchFaults            0                       # Number of TLB faults due to prefetch
system.cpu.dtb.stage2_mmu.stage2_tlb.domainFaults            0                       # Number of TLB faults due to domain restrictions
system.cpu.dtb.stage2_mmu.stage2_tlb.permsFaults            0                       # Number of TLB faults due to permissions restrictions
system.cpu.dtb.stage2_mmu.stage2_tlb.readAccesses            0                       # DTB read accesses
system.cpu.dtb.stage2_mmu.stage2_tlb.writeAccesses            0                       # DTB write accesses
system.cpu.dtb.stage2_mmu.stage2_tlb.instAccesses            0                       # ITB inst accesses
system.cpu.dtb.stage2_mmu.stage2_tlb.hits            0                       # Total TLB (inst and data) hits
system.cpu.dtb.stage2_mmu.stage2_tlb.misses            0                       # Total TLB (inst and data) misses
system.cpu.dtb.stage2_mmu.stage2_tlb.accesses            0                       # Total TLB (inst and data) accesses
system.cpu.dtb.stage2_mmu.stage2_tlb.walker.walks            0                       # Table walker walks requested
system.cpu.dtb.stage2_mmu.stage2_tlb.walker.requestOrigin_Requested::Data            0                       # Table walker requests started/completed, data/inst
system.cpu.dtb.stage2_mmu.stage2_tlb.walker.requestOrigin_Requested::Inst            0                       # Table walker requests started/completed, data/inst
system.cpu.dtb.stage2_mmu.stage2_tlb.walker.requestOrigin_Requested::total            0                       # Table walker requests started/completed, data/inst
system.cpu.dtb.stage2_mmu.stage2_tlb.walker.requestOrigin_Completed::Data            0                       # Table walker requests started/completed, data/inst
system.cpu.dtb.stage2_mmu.stage2_tlb.walker.requestOrigin_Completed::Inst            0                       # Table walker requests started/completed, data/inst
system.cpu.dtb.stage2_mmu.stage2_tlb.walker.requestOrigin_Completed::total            0                       # Table walker requests started/completed, data/inst
system.cpu.dtb.stage2_mmu.stage2_tlb.walker.requestOrigin::total            0                       # Table walker requests started/completed, data/inst
system.cpu.dtb.stage2_mmu.stage2_tlb.walker.power_state.pwrStateResidencyTicks::UNDEFINED 7507651091000                       # Cumulative time (in ticks) in various power states
system.cpu.dtb.walker.walks                         0                       # Table walker walks requested
system.cpu.dtb.walker.requestOrigin_Requested::Data            0                       # Table walker requests started/completed, data/inst
system.cpu.dtb.walker.requestOrigin_Requested::Inst            0                       # Table walker requests started/completed, data/inst
system.cpu.dtb.walker.requestOrigin_Requested::total            0                       # Table walker requests started/completed, data/inst
system.cpu.dtb.walker.requestOrigin_Completed::Data            0                       # Table walker requests started/completed, data/inst
system.cpu.dtb.walker.requestOrigin_Completed::Inst            0                       # Table walker requests started/completed, data/inst
system.cpu.dtb.walker.requestOrigin_Completed::total            0                       # Table walker requests started/completed, data/inst
system.cpu.dtb.walker.requestOrigin::total            0                       # Table walker requests started/completed, data/inst
system.cpu.dtb.walker.power_state.pwrStateResidencyTicks::UNDEFINED 7507651091000                       # Cumulative time (in ticks) in various power states
system.cpu.icache.demand_hits::.cpu.inst           18                       # number of demand (read+write) hits
system.cpu.icache.demand_hits::.switch_cpus.inst    136876020                       # number of demand (read+write) hits
system.cpu.icache.demand_hits::total        136876038                       # number of demand (read+write) hits
system.cpu.icache.overall_hits::.cpu.inst           18                       # number of overall hits
system.cpu.icache.overall_hits::.switch_cpus.inst    136876020                       # number of overall hits
system.cpu.icache.overall_hits::total       136876038                       # number of overall hits
system.cpu.icache.demand_misses::.cpu.inst            2                       # number of demand (read+write) misses
system.cpu.icache.demand_misses::.switch_cpus.inst         1872                       # number of demand (read+write) misses
system.cpu.icache.demand_misses::total           1874                       # number of demand (read+write) misses
system.cpu.icache.overall_misses::.cpu.inst            2                       # number of overall misses
system.cpu.icache.overall_misses::.switch_cpus.inst         1872                       # number of overall misses
system.cpu.icache.overall_misses::total          1874                       # number of overall misses
system.cpu.icache.demand_miss_latency::.switch_cpus.inst    144327499                       # number of demand (read+write) miss cycles
system.cpu.icache.demand_miss_latency::total    144327499                       # number of demand (read+write) miss cycles
system.cpu.icache.overall_miss_latency::.switch_cpus.inst    144327499                       # number of overall miss cycles
system.cpu.icache.overall_miss_latency::total    144327499                       # number of overall miss cycles
system.cpu.icache.demand_accesses::.cpu.inst           20                       # number of demand (read+write) accesses
system.cpu.icache.demand_accesses::.switch_cpus.inst    136877892                       # number of demand (read+write) accesses
system.cpu.icache.demand_accesses::total    136877912                       # number of demand (read+write) accesses
system.cpu.icache.overall_accesses::.cpu.inst           20                       # number of overall (read+write) accesses
system.cpu.icache.overall_accesses::.switch_cpus.inst    136877892                       # number of overall (read+write) accesses
system.cpu.icache.overall_accesses::total    136877912                       # number of overall (read+write) accesses
system.cpu.icache.demand_miss_rate::.cpu.inst     0.100000                       # miss rate for demand accesses
system.cpu.icache.demand_miss_rate::.switch_cpus.inst     0.000014                       # miss rate for demand accesses
system.cpu.icache.demand_miss_rate::total     0.000014                       # miss rate for demand accesses
system.cpu.icache.overall_miss_rate::.cpu.inst     0.100000                       # miss rate for overall accesses
system.cpu.icache.overall_miss_rate::.switch_cpus.inst     0.000014                       # miss rate for overall accesses
system.cpu.icache.overall_miss_rate::total     0.000014                       # miss rate for overall accesses
system.cpu.icache.demand_avg_miss_latency::.switch_cpus.inst 77098.022970                       # average overall miss latency
system.cpu.icache.demand_avg_miss_latency::total 77015.741195                       # average overall miss latency
system.cpu.icache.overall_avg_miss_latency::.switch_cpus.inst 77098.022970                       # average overall miss latency
system.cpu.icache.overall_avg_miss_latency::total 77015.741195                       # average overall miss latency
system.cpu.icache.blocked_cycles::no_mshrs          736                       # number of cycles access was blocked
system.cpu.icache.blocked_cycles::no_targets            0                       # number of cycles access was blocked
system.cpu.icache.blocked::no_mshrs                12                       # number of cycles access was blocked
system.cpu.icache.blocked::no_targets               0                       # number of cycles access was blocked
system.cpu.icache.avg_blocked_cycles::no_mshrs    61.333333                       # average number of cycles each access was blocked
system.cpu.icache.avg_blocked_cycles::no_targets          nan                       # average number of cycles each access was blocked
system.cpu.icache.ghost_timestamp_misses            0                       # number of times timestamp policy causes a block to be inaccessible
system.cpu.icache.ghost_commits                   785                       # number of cache lines moved from ghost to main
system.cpu.icache.same_leapfrogs                    0                       # number of times leapfrogging occurs with a shared MSHR request
system.cpu.icache.writebacks::.writebacks         1072                       # number of writebacks
system.cpu.icache.writebacks::total              1072                       # number of writebacks
system.cpu.icache.demand_mshr_hits::.switch_cpus.inst          402                       # number of demand (read+write) MSHR hits
system.cpu.icache.demand_mshr_hits::total          402                       # number of demand (read+write) MSHR hits
system.cpu.icache.overall_mshr_hits::.switch_cpus.inst          402                       # number of overall MSHR hits
system.cpu.icache.overall_mshr_hits::total          402                       # number of overall MSHR hits
system.cpu.icache.demand_mshr_misses::.switch_cpus.inst         1470                       # number of demand (read+write) MSHR misses
system.cpu.icache.demand_mshr_misses::total         1470                       # number of demand (read+write) MSHR misses
system.cpu.icache.overall_mshr_misses::.switch_cpus.inst         1470                       # number of overall MSHR misses
system.cpu.icache.overall_mshr_misses::total         1470                       # number of overall MSHR misses
system.cpu.icache.demand_mshr_miss_latency::.switch_cpus.inst    117138999                       # number of demand (read+write) MSHR miss cycles
system.cpu.icache.demand_mshr_miss_latency::total    117138999                       # number of demand (read+write) MSHR miss cycles
system.cpu.icache.overall_mshr_miss_latency::.switch_cpus.inst    117138999                       # number of overall MSHR miss cycles
system.cpu.icache.overall_mshr_miss_latency::total    117138999                       # number of overall MSHR miss cycles
system.cpu.icache.demand_mshr_miss_rate::.switch_cpus.inst     0.000011                       # mshr miss rate for demand accesses
system.cpu.icache.demand_mshr_miss_rate::total     0.000011                       # mshr miss rate for demand accesses
system.cpu.icache.overall_mshr_miss_rate::.switch_cpus.inst     0.000011                       # mshr miss rate for overall accesses
system.cpu.icache.overall_mshr_miss_rate::total     0.000011                       # mshr miss rate for overall accesses
system.cpu.icache.demand_avg_mshr_miss_latency::.switch_cpus.inst 79686.393878                       # average overall mshr miss latency
system.cpu.icache.demand_avg_mshr_miss_latency::total 79686.393878                       # average overall mshr miss latency
system.cpu.icache.overall_avg_mshr_miss_latency::.switch_cpus.inst 79686.393878                       # average overall mshr miss latency
system.cpu.icache.overall_avg_mshr_miss_latency::total 79686.393878                       # average overall mshr miss latency
system.cpu.icache.replacements                    287                       # number of replacements
system.cpu.icache.ReadReq_hits::.cpu.inst           18                       # number of ReadReq hits
system.cpu.icache.ReadReq_hits::.switch_cpus.inst    136876020                       # number of ReadReq hits
system.cpu.icache.ReadReq_hits::total       136876038                       # number of ReadReq hits
system.cpu.icache.ReadReq_misses::.cpu.inst            2                       # number of ReadReq misses
system.cpu.icache.ReadReq_misses::.switch_cpus.inst         1872                       # number of ReadReq misses
system.cpu.icache.ReadReq_misses::total          1874                       # number of ReadReq misses
system.cpu.icache.ReadReq_miss_latency::.switch_cpus.inst    144327499                       # number of ReadReq miss cycles
system.cpu.icache.ReadReq_miss_latency::total    144327499                       # number of ReadReq miss cycles
system.cpu.icache.ReadReq_accesses::.cpu.inst           20                       # number of ReadReq accesses(hits+misses)
system.cpu.icache.ReadReq_accesses::.switch_cpus.inst    136877892                       # number of ReadReq accesses(hits+misses)
system.cpu.icache.ReadReq_accesses::total    136877912                       # number of ReadReq accesses(hits+misses)
system.cpu.icache.ReadReq_miss_rate::.cpu.inst     0.100000                       # miss rate for ReadReq accesses
system.cpu.icache.ReadReq_miss_rate::.switch_cpus.inst     0.000014                       # miss rate for ReadReq accesses
system.cpu.icache.ReadReq_miss_rate::total     0.000014                       # miss rate for ReadReq accesses
system.cpu.icache.ReadReq_avg_miss_latency::.switch_cpus.inst 77098.022970                       # average ReadReq miss latency
system.cpu.icache.ReadReq_avg_miss_latency::total 77015.741195                       # average ReadReq miss latency
system.cpu.icache.ReadReq_mshr_hits::.switch_cpus.inst          402                       # number of ReadReq MSHR hits
system.cpu.icache.ReadReq_mshr_hits::total          402                       # number of ReadReq MSHR hits
system.cpu.icache.ReadReq_mshr_misses::.switch_cpus.inst         1470                       # number of ReadReq MSHR misses
system.cpu.icache.ReadReq_mshr_misses::total         1470                       # number of ReadReq MSHR misses
system.cpu.icache.ReadReq_mshr_miss_latency::.switch_cpus.inst    117138999                       # number of ReadReq MSHR miss cycles
system.cpu.icache.ReadReq_mshr_miss_latency::total    117138999                       # number of ReadReq MSHR miss cycles
system.cpu.icache.ReadReq_mshr_miss_rate::.switch_cpus.inst     0.000011                       # mshr miss rate for ReadReq accesses
system.cpu.icache.ReadReq_mshr_miss_rate::total     0.000011                       # mshr miss rate for ReadReq accesses
system.cpu.icache.ReadReq_avg_mshr_miss_latency::.switch_cpus.inst 79686.393878                       # average ReadReq mshr miss latency
system.cpu.icache.ReadReq_avg_mshr_miss_latency::total 79686.393878                       # average ReadReq mshr miss latency
system.cpu.icache.ghosttags.tagsinuse       -0.150946                       # Cycle average of tags in use
system.cpu.icache.ghosttags.total_refs              0                       # Total number of references to valid blocks.
system.cpu.icache.ghosttags.sampled_refs            0                       # Sample count of references to valid blocks.
system.cpu.icache.ghosttags.avg_refs              nan                       # Average number of references to valid blocks.
system.cpu.icache.ghosttags.warmup_cycle 6004359606500                       # Cycle when the warmup percentage was hit.
system.cpu.icache.ghosttags.occ_blocks::.switch_cpus.inst   107.888970                       # Average occupied blocks per requestor
system.cpu.icache.ghosttags.occ_percent::.switch_cpus.inst     3.371530                       # Average percentage of cache occupancy
system.cpu.icache.ghosttags.occ_percent::total     3.371530                       # Average percentage of cache occupancy
system.cpu.icache.ghosttags.tag_accesses         5595                       # Number of tag accesses
system.cpu.icache.ghosttags.data_accesses         5595                       # Number of data accesses
system.cpu.icache.ghosttags.repl_invalid            0                       # Number of initial replacements
system.cpu.icache.ghosttags.repl_valid_tag            0                       # Number of local replacements
system.cpu.icache.ghosttags.repl_valid_data            0                       # Number of global replacements
system.cpu.icache.ghosttags.power_state.pwrStateResidencyTicks::UNDEFINED 7507651091000                       # Cumulative time (in ticks) in various power states
system.cpu.icache.power_state.pwrStateResidencyTicks::UNDEFINED 7507651091000                       # Cumulative time (in ticks) in various power states
system.cpu.icache.tags.tagsinuse           -45.564970                       # Cycle average of tags in use
system.cpu.icache.tags.total_refs           136878295                       # Total number of references to valid blocks.
system.cpu.icache.tags.sampled_refs              2257                       # Sample count of references to valid blocks.
system.cpu.icache.tags.avg_refs          60646.120957                       # Average number of references to valid blocks.
system.cpu.icache.tags.warmup_cycle      6004359385000                       # Cycle when the warmup percentage was hit.
system.cpu.icache.tags.occ_blocks::.cpu.inst     1.998912                       # Average occupied blocks per requestor
system.cpu.icache.tags.occ_blocks::.switch_cpus.inst   -47.563882                       # Average occupied blocks per requestor
system.cpu.icache.tags.occ_percent::.cpu.inst     0.003904                       # Average percentage of cache occupancy
system.cpu.icache.tags.occ_percent::.switch_cpus.inst    -0.092898                       # Average percentage of cache occupancy
system.cpu.icache.tags.occ_percent::total    -0.088994                       # Average percentage of cache occupancy
system.cpu.icache.tags.occ_task_id_blocks::1024          501                       # Occupied blocks per task id
system.cpu.icache.tags.age_task_id_blocks_1024::2          497                       # Occupied blocks per task id
system.cpu.icache.tags.age_task_id_blocks_1024::4            4                       # Occupied blocks per task id
[...]
system.switch_cpus.fetch.cycles            2869276723                       # Number of cycles fetch has run and was not squashing or blocked
system.switch_cpus.fetch.squashCycles          299536                       # Number of cycles fetch has spent squashing
system.switch_cpus.fetch.miscStallCycles            3                       # Number of cycles fetch has spent waiting on interrupts,or bad addresses, or out of MSHRs
system.switch_cpus.fetch.pendingTrapStallCycles          257                       # Number of stall cycles due to pending traps
system.switch_cpus.fetch.icacheWaitRetryStallCycles           22                       # Number of stall cycles due to full MSHR
system.switch_cpus.fetch.cacheLines         136877892                       # Number of cache lines fetched
system.switch_cpus.fetch.icacheSquashes         20309                       # Number of outstanding Icache misses that were squashed
system.switch_cpus.fetch.nisnDist::samples   3006462797                       # Number of instructions fetched each cycle (Total)
system.switch_cpus.fetch.nisnDist::mean      0.696616                       # Number of instructions fetched each cycle (Total)
system.switch_cpus.fetch.nisnDist::stdev     2.140313                       # Number of instructions fetched each cycle (Total)
system.switch_cpus.fetch.nisnDist::underflows            0      0.00%      0.00% # Number of instructions fetched each cycle (Total)
system.switch_cpus.fetch.nisnDist::0       2677594268     89.06%     89.06% # Number of instructions fetched each cycle (Total)
system.switch_cpus.fetch.nisnDist::1         17413173      0.58%     89.64% # Number of instructions fetched each cycle (Total)
system.switch_cpus.fetch.nisnDist::2         24354656      0.81%     90.45% # Number of instructions fetched each cycle (Total)
system.switch_cpus.fetch.nisnDist::3         26511862      0.88%     91.33% # Number of instructions fetched each cycle (Total)
system.switch_cpus.fetch.nisnDist::4          2925183      0.10%     91.43% # Number of instructions fetched each cycle (Total)
system.switch_cpus.fetch.nisnDist::5         30380865      1.01%     92.44% # Number of instructions fetched each cycle (Total)
system.switch_cpus.fetch.nisnDist::6         11573843      0.38%     92.83% # Number of instructions fetched each cycle (Total)
system.switch_cpus.fetch.nisnDist::7         10026998      0.33%     93.16% # Number of instructions fetched each cycle (Total)
system.switch_cpus.fetch.nisnDist::8        205681949      6.84%    100.00% # Number of instructions fetched each cycle (Total)
system.switch_cpus.fetch.nisnDist::overflows            0      0.00%    100.00% # Number of instructions fetched each cycle (Total)
system.switch_cpus.fetch.nisnDist::min_value            0                       # Number of instructions fetched each cycle (Total)
system.switch_cpus.fetch.nisnDist::max_value            8                       # Number of instructions fetched each cycle (Total)
system.switch_cpus.fetch.nisnDist::total   3006462797                       # Number of instructions fetched each cycle (Total)
system.switch_cpus.fetch.branchRate          0.002251                       # Number of branch fetches per cycle
system.switch_cpus.fetch.rate                0.671053                       # Number of inst fetches per cycle
system.switch_cpus.itb.instHits                     0                       # ITB inst hits
system.switch_cpus.itb.instMisses                   0                       # ITB inst misses
system.switch_cpus.itb.readHits                     0                       # DTB read hits
system.switch_cpus.itb.readMisses                   0                       # DTB read misses
system.switch_cpus.itb.writeHits                    0                       # DTB write hits
system.switch_cpus.itb.writeMisses                  0                       # DTB write misses
system.switch_cpus.itb.inserts                      0                       # Number of times an entry is inserted into the TLB
system.switch_cpus.itb.flushTlb                    12                       # Number of times complete TLB was flushed
system.switch_cpus.itb.flushTlbMva                  0                       # Number of times TLB was flushed by MVA
system.switch_cpus.itb.flushTlbMvaAsid              0                       # Number of times TLB was flushed by MVA & ASID
system.switch_cpus.itb.flushTlbAsid                 0                       # Number of times TLB was flushed by ASID
system.switch_cpus.itb.flushedEntries               0                       # Number of entries that have been flushed from TLB
system.switch_cpus.itb.alignFaults                  0                       # Number of TLB faults due to alignment restrictions
system.switch_cpus.itb.prefetchFaults               0                       # Number of TLB faults due to prefetch
system.switch_cpus.itb.domainFaults                 0                       # Number of TLB faults due to domain restrictions
system.switch_cpus.itb.permsFaults                  0                       # Number of TLB faults due to permissions restrictions
system.switch_cpus.itb.readAccesses                 0                       # DTB read accesses
system.switch_cpus.itb.writeAccesses                0                       # DTB write accesses
system.switch_cpus.itb.instAccesses                 0                       # ITB inst accesses
system.switch_cpus.itb.hits                         0                       # Total TLB (inst and data) hits
system.switch_cpus.itb.misses                       0                       # Total TLB (inst and data) misses
system.switch_cpus.itb.accesses                     0                       # Total TLB (inst and data) accesses
system.switch_cpus.itb.stage2_mmu.stage2_tlb.instHits            0                       # ITB inst hits
system.switch_cpus.itb.stage2_mmu.stage2_tlb.instMisses            0                       # ITB inst misses
system.switch_cpus.itb.stage2_mmu.stage2_tlb.readHits            0                       # DTB read hits
system.switch_cpus.itb.stage2_mmu.stage2_tlb.readMisses            0                       # DTB read misses
system.switch_cpus.itb.stage2_mmu.stage2_tlb.writeHits            0                       # DTB write hits
system.switch_cpus.itb.stage2_mmu.stage2_tlb.writeMisses            0                       # DTB write misses
system.switch_cpus.itb.stage2_mmu.stage2_tlb.inserts            0                       # Number of times an entry is inserted into the TLB
system.switch_cpus.itb.stage2_mmu.stage2_tlb.flushTlb            0                       # Number of times complete TLB was flushed
system.switch_cpus.itb.stage2_mmu.stage2_tlb.flushTlbMva            0                       # Number of times TLB was flushed by MVA
system.switch_cpus.itb.stage2_mmu.stage2_tlb.flushTlbMvaAsid            0                       # Number of times TLB was flushed by MVA & ASID
system.switch_cpus.itb.stage2_mmu.stage2_tlb.flushTlbAsid            0                       # Number of times TLB was flushed by ASID
system.switch_cpus.itb.stage2_mmu.stage2_tlb.flushedEntries            0                       # Number of entries that have been flushed from TLB
system.switch_cpus.itb.stage2_mmu.stage2_tlb.alignFaults            0                       # Number of TLB faults due to alignment restrictions
system.switch_cpus.itb.stage2_mmu.stage2_tlb.prefetchFaults            0                       # Number of TLB faults due to prefetch
system.switch_cpus.itb.stage2_mmu.stage2_tlb.domainFaults            0                       # Number of TLB faults due to domain restrictions
system.switch_cpus.itb.stage2_mmu.stage2_tlb.permsFaults            0                       # Number of TLB faults due to permissions restrictions
system.switch_cpus.itb.stage2_mmu.stage2_tlb.readAccesses            0                       # DTB read accesses
system.switch_cpus.itb.stage2_mmu.stage2_tlb.writeAccesses            0                       # DTB write accesses
system.switch_cpus.itb.stage2_mmu.stage2_tlb.instAccesses            0                       # ITB inst accesses
system.switch_cpus.itb.stage2_mmu.stage2_tlb.hits            0                       # Total TLB (inst and data) hits
system.switch_cpus.itb.stage2_mmu.stage2_tlb.misses            0                       # Total TLB (inst and data) misses
system.switch_cpus.itb.stage2_mmu.stage2_tlb.accesses            0                       # Total TLB (inst and data) accesses
system.switch_cpus.itb.stage2_mmu.stage2_tlb.walker.walks            0                       # Table walker walks requested
system.switch_cpus.itb.stage2_mmu.stage2_tlb.walker.requestOrigin_Requested::Data            0                       # Table walker requests started/completed, data/inst
system.switch_cpus.itb.stage2_mmu.stage2_tlb.walker.requestOrigin_Requested::Inst            0                       # Table walker requests started/completed, data/inst
system.switch_cpus.itb.stage2_mmu.stage2_tlb.walker.requestOrigin_Requested::total            0                       # Table walker requests started/completed, data/inst
system.switch_cpus.itb.stage2_mmu.stage2_tlb.walker.requestOrigin_Completed::Data            0                       # Table walker requests started/completed, data/inst
system.switch_cpus.itb.stage2_mmu.stage2_tlb.walker.requestOrigin_Completed::Inst            0                       # Table walker requests started/completed, data/inst
system.switch_cpus.itb.stage2_mmu.stage2_tlb.walker.requestOrigin_Completed::total            0                       # Table walker requests started/completed, data/inst
system.switch_cpus.itb.stage2_mmu.stage2_tlb.walker.requestOrigin::total            0                       # Table walker requests started/completed, data/inst
system.switch_cpus.itb.stage2_mmu.stage2_tlb.walker.power_state.pwrStateResidencyTicks::UNDEFINED 7507651091000                       # Cumulative time (in ticks) in various power states
system.switch_cpus.itb.walker.walks                 0                       # Table walker walks requested
system.switch_cpus.itb.walker.requestOrigin_Requested::Data            0                       # Table walker requests started/completed, data/inst
system.switch_cpus.itb.walker.requestOrigin_Requested::Inst            0                       # Table walker requests started/completed, data/inst
system.switch_cpus.itb.walker.requestOrigin_Requested::total            0                       # Table walker requests started/completed, data/inst
system.switch_cpus.itb.walker.requestOrigin_Completed::Data            0                       # Table walker requests started/completed, data/inst
system.switch_cpus.itb.walker.requestOrigin_Completed::Inst            0                       # Table walker requests started/completed, data/inst
system.switch_cpus.itb.walker.requestOrigin_Completed::total            0                       # Table walker requests started/completed, data/inst
system.switch_cpus.itb.walker.requestOrigin::total            0                       # Table walker requests started/completed, data/inst
system.switch_cpus.itb.walker.power_state.pwrStateResidencyTicks::UNDEFINED 7507651091000                       # Cumulative time (in ticks) in various power states
system.switch_cpus.lsq0.forwLoads             9745698                       # Number of loads that had data forwarded from stores
system.switch_cpus.lsq0.squashedLoads         2996193                       # Number of loads squashed
system.switch_cpus.lsq0.ignoredResponses          438                       # Number of memory responses ignored because the instruction is squashed
system.switch_cpus.lsq0.memOrderViolation         9184                       # Number of memory ordering violations
system.switch_cpus.lsq0.squashedStores         950477                       # Number of stores squashed
system.switch_cpus.lsq0.rescheduledLoads      3329266                       # Number of loads that were rescheduled
system.switch_cpus.lsq0.blockedByCache       42178907                       # Number of times an access to memory failed due to the cache being blocked
system.switch_cpus.power_state.pwrStateResidencyTicks::OFF 1503291706500                       # Cumulative time (in ticks) in various power states
system.switch_cpus.rename.squashCycles         149282                       # Number of cycles rename is squashing
system.switch_cpus.rename.idleCycles        104981044                       # Number of cycles rename is idle
system.switch_cpus.rename.blockCycles      1350823345                       # Number of cycles rename is blocking
system.switch_cpus.rename.serializeStallCycles         5009                       # count of cycles rename stalledfor serializing inst
system.switch_cpus.rename.runCycles         207238402                       # Number of cycles rename is running
system.switch_cpus.rename.unblockCycles    1343265704                       # Number of cycles rename is unblocking
system.switch_cpus.rename.renamedInsts     2088240705                       # Number of instructions processed by rename
system.switch_cpus.rename.ROBFullEvents        232325                       # Number of times rename has blocked due to ROB full
system.switch_cpus.rename.IQFullEvents      252753753                       # Number of times rename has blocked due to IQ full
system.switch_cpus.rename.LQFullEvents     1117590385                       # Number of times rename has blocked due to LQ full
system.switch_cpus.rename.SQFullEvents       25543037                       # Number of times rename has blocked due to SQ full
system.switch_cpus.rename.renamedOperands   2893549623                       # Number of destination operands rename has renamed
system.switch_cpus.rename.lookups          7746445774                       # Number of register rename lookups that rename has made
system.switch_cpus.rename.intLookups       1751569933                       # Number of integer rename lookups
system.switch_cpus.rename.vecLookups       2115098469                       # Number of vector rename lookups
system.switch_cpus.rename.vecPredLookups           48                       # Number of vector predicate rename lookups
system.switch_cpus.rename.committedMaps    2876914086                       # Number of HB maps that are committed
system.switch_cpus.rename.undoneMaps         16635503                       # Number of HB maps that are undone due to squashing
system.switch_cpus.rename.serializing             109                       # count of serializing insts renamed
system.switch_cpus.rename.tempSerializing           14                       # count of temporary serializing insts renamed
system.switch_cpus.rename.skidInsts         819820723                       # count of insts added to the skid buffer
system.switch_cpus.rob.reads               4911694779                       # The number of ROB reads
system.switch_cpus.rob.writes              4176807862                       # The number of ROB writes
system.switch_cpus.thread0.numInsts        2000000001                       # Number of Instructions committed
system.switch_cpus.thread0.numOps          2075976389                       # Number of Ops committed
system.switch_cpus.thread0.numMemRefs               0                       # Number of Memory References
system.tol2bus.trans_dist::ReadResp          64020760                       # Transaction distribution
system.tol2bus.trans_dist::WritebackDirty     19316310                       # Transaction distribution
system.tol2bus.trans_dist::WritebackClean     48415514                       # Transaction distribution
system.tol2bus.trans_dist::CleanEvict        61061776                       # Transaction distribution
system.tol2bus.trans_dist::HardPFReq         11602977                       # Transaction distribution
system.tol2bus.trans_dist::UpgradeReq           66587                       # Transaction distribution
system.tol2bus.trans_dist::UpgradeResp          66587                       # Transaction distribution
system.tol2bus.trans_dist::ReadExReq          9647423                       # Transaction distribution
system.tol2bus.trans_dist::ReadExResp         9647423                       # Transaction distribution
system.tol2bus.trans_dist::ReadCleanReq      64020756                       # Transaction distribution
system.tol2bus.trans_dist::ReadSharedReq            4                       # Transaction distribution
system.tol2bus.trans_dist::InvalidateReq          592                       # Transaction distribution
system.tol2bus.trans_dist::InvalidateResp          592                       # Transaction distribution
system.tol2bus.pkt_count_system.cpu.icache.mem_side_port::system.l2.cpu_side_port         3915                       # Packet count per connected requestor and responder (bytes)
system.tol2bus.pkt_count_system.cpu.dcache.mem_side_port::system.l2.cpu_side_port    211714392                       # Packet count per connected requestor and responder (bytes)
system.tol2bus.pkt_count::total             211718307                       # Packet count per connected requestor and responder (bytes)
system.tol2bus.pkt_size_system.cpu.icache.mem_side_port::system.l2.cpu_side_port       112576                       # Cumulative packet size per connected requestor and responder (bytes)
system.tol2bus.pkt_size_system.cpu.dcache.mem_side_port::system.l2.cpu_side_port   8434945984                       # Cumulative packet size per connected requestor and responder (bytes)
system.tol2bus.pkt_size::total             8435058560                       # Cumulative packet size per connected requestor and responder (bytes)
system.tol2bus.snoops                        76148994                       # Total snoops (count)
system.tol2bus.snoopTraffic                 614541888                       # Total snoop traffic (bytes)
system.tol2bus.snoop_fanout::samples        149884365                       # Request fanout histogram
system.tol2bus.snoop_fanout::mean            0.189605                       # Request fanout histogram
system.tol2bus.snoop_fanout::stdev           0.391989                       # Request fanout histogram
system.tol2bus.snoop_fanout::underflows             0      0.00%      0.00% # Request fanout histogram
system.tol2bus.snoop_fanout::0              121465514     81.04%     81.04% # Request fanout histogram
system.tol2bus.snoop_fanout::1               28418849     18.96%    100.00% # Request fanout histogram
system.tol2bus.snoop_fanout::2                      2      0.00%    100.00% # Request fanout histogram
system.tol2bus.snoop_fanout::overflows              0      0.00%    100.00% # Request fanout histogram
system.tol2bus.snoop_fanout::min_value              0                       # Request fanout histogram
system.tol2bus.snoop_fanout::max_value              2                       # Request fanout histogram
system.tol2bus.snoop_fanout::total          149884365                       # Request fanout histogram
system.tol2bus.power_state.pwrStateResidencyTicks::UNDEFINED 7507651091000                       # Cumulative time (in ticks) in various power states
system.tol2bus.reqLayer0.occupancy       140350756803                       # Layer occupancy (ticks)
system.tol2bus.reqLayer0.utilization              9.3                       # Layer utilization (%)
system.tol2bus.respLayer0.occupancy           2205499                       # Layer occupancy (ticks)
system.tol2bus.respLayer0.utilization             0.0                       # Layer utilization (%)
system.tol2bus.respLayer1.occupancy      110533650499                       # Layer occupancy (ticks)
system.tol2bus.respLayer1.utilization             7.4                       # Layer utilization (%)
system.voltage_domain.voltage                       1                       # Voltage in Volts

---------- End Simulation Statistics   ----------
