
---------- Begin Simulation Statistics ----------
final_tick                               5965016579000                       # Number of ticks from beginning of simulation (restored from checkpoints and never reset)
host_inst_rate                                 529630                       # Simulator instruction rate (inst/s)
host_mem_usage                               16987432                       # Number of bytes of host memory used
host_op_rate                                   566701                       # Simulator op (including micro ops) rate (op/s)
host_seconds                                  3776.22                       # Real time elapsed on the host
host_tick_rate                              160789519                       # Simulator tick rate (ticks/s)
sim_freq                                 1000000000000                       # Frequency of simulated ticks
sim_insts                                  2000000021                       # Number of instructions simulated
sim_ops                                    2139987011                       # Number of ops (including micro ops) simulated
sim_seconds                                  0.607177                       # Number of seconds simulated
sim_ticks                                607176669500                       # Number of ticks simulated
system.cpu.committedInsts                          20                       # Number of instructions committed
system.cpu.committedOps                            20                       # Number of ops (including micro ops) committed
system.cpu.dcache.MSHRs.leapFrogMisses          17941                       # number of false blocks from MSHR
system.cpu.icache.MSHRs.leapFrogMisses              0                       # number of false blocks from MSHR
system.cpu.idle_fraction                            0                       # Percentage of idle cycles
system.cpu.not_idle_fraction                        1                       # Percentage of non-idle cycles
system.cpu.numCycles                               20                       # number of cpu cycles simulated
system.cpu.numWorkItemsCompleted                    0                       # number of work items this cpu completed
system.cpu.numWorkItemsStarted                      0                       # number of work items this cpu started
system.cpu.num_busy_cycles                         20                       # Number of busy cycles
system.cpu.num_cc_register_reads                    6                       # number of times the CC registers were read
system.cpu.num_cc_register_writes                   9                       # number of times the CC registers were written
system.cpu.num_conditional_control_insts            0                       # number of instructions that are conditional controls
system.cpu.num_fp_alu_accesses                      0                       # Number of float alu accesses
system.cpu.num_fp_insts                             0                       # number of float instructions
system.cpu.num_fp_register_reads                    0                       # number of times the floating registers were read
system.cpu.num_fp_register_writes                   0                       # number of times the floating registers were written
system.cpu.num_func_calls                           0                       # number of times a function call or return occured
system.cpu.num_idle_cycles                          0                       # Number of idle cycles
system.cpu.num_int_alu_accesses                    20                       # Number of integer alu accesses
system.cpu.num_int_insts                           20                       # number of integer instructions
system.cpu.num_int_register_reads                  30                       # number of times the integer registers were read
system.cpu.num_int_register_writes                 20                       # number of times the integer registers were written
system.cpu.num_load_insts                          11                       # Number of load instructions
system.cpu.num_mem_refs                            11                       # number of memory refs
system.cpu.num_store_insts                          0                       # Number of store instructions
system.cpu.num_vec_alu_accesses                     0                       # Number of vector alu accesses
system.cpu.num_vec_insts                            0                       # number of vector instructions
system.cpu.num_vec_register_reads                   0                       # number of times the vector registers were read
system.cpu.num_vec_register_writes                  0                       # number of times the vector registers were written
system.cpu.op_class::No_OpClass                     0      0.00%      0.00% # Class of executed instruction
system.cpu.op_class::IntAlu                         9     45.00%     45.00% # Class of executed instruction
system.cpu.op_class::IntMult                        0      0.00%     45.00% # Class of executed instruction
system.cpu.op_class::IntDiv                         0      0.00%     45.00% # Class of executed instruction
system.cpu.op_class::FloatAdd                       0      0.00%     45.00% # Class of executed instruction
system.cpu.op_class::FloatCmp                       0      0.00%     45.00% # Class of executed instruction
system.cpu.op_class::FloatCvt                       0      0.00%     45.00% # Class of executed instruction
system.cpu.op_class::FloatMult                      0      0.00%     45.00% # Class of executed instruction
system.cpu.op_class::FloatMultAcc                   0      0.00%     45.00% # Class of executed instruction
system.cpu.op_class::FloatDiv                       0      0.00%     45.00% # Class of executed instruction
system.cpu.op_class::FloatMisc                      0      0.00%     45.00% # Class of executed instruction
system.cpu.op_class::FloatSqrt                      0      0.00%     45.00% # Class of executed instruction
system.cpu.op_class::SimdAdd                        0      0.00%     45.00% # Class of executed instruction
system.cpu.op_class::SimdAddAcc                     0      0.00%     45.00% # Class of executed instruction
system.cpu.op_class::SimdAlu                        0      0.00%     45.00% # Class of executed instruction
system.cpu.op_class::SimdCmp                        0      0.00%     45.00% # Class of executed instruction
system.cpu.op_class::SimdCvt                        0      0.00%     45.00% # Class of executed instruction
system.cpu.op_class::SimdMisc                       0      0.00%     45.00% # Class of executed instruction
system.cpu.op_class::SimdMult                       0      0.00%     45.00% # Class of executed instruction
system.cpu.op_class::SimdMultAcc                    0      0.00%     45.00% # Class of executed instruction
system.cpu.op_class::SimdShift                      0      0.00%     45.00% # Class of executed instruction
system.cpu.op_class::SimdShiftAcc                   0      0.00%     45.00% # Class of executed instruction
system.cpu.op_class::SimdDiv                        0      0.00%     45.00% # Class of executed instruction
system.cpu.op_class::SimdSqrt                       0      0.00%     45.00% # Class of executed instruction
system.cpu.op_class::SimdFloatAdd                   0      0.00%     45.00% # Class of executed instruction
system.cpu.op_class::SimdFloatAlu                   0      0.00%     45.00% # Class of executed instruction
system.cpu.op_class::SimdFloatCmp                   0      0.00%     45.00% # Class of executed instruction
system.cpu.op_class::SimdFloatCvt                   0      0.00%     45.00% # Class of executed instruction
system.cpu.op_class::SimdFloatDiv                   0      0.00%     45.00% # Class of executed instruction
system.cpu.op_class::SimdFloatMisc                  0      0.00%     45.00% # Class of executed instruction
system.cpu.op_class::SimdFloatMult                  0      0.00%     45.00% # Class of executed instruction
system.cpu.op_class::SimdFloatMultAcc               0      0.00%     45.00% # Class of executed instruction
system.cpu.op_class::SimdFloatSqrt                  0      0.00%     45.00% # Class of executed instruction
system.cpu.op_class::SimdReduceAdd                  0      0.00%     45.00% # Class of executed instruction
system.cpu.op_class::SimdReduceAlu                  0      0.00%     45.00% # Class of executed instruction
system.cpu.op_class::SimdReduceCmp                  0      0.00%     45.00% # Class of executed instruction
system.cpu.op_class::SimdFloatReduceAdd             0      0.00%     45.00% # Class of executed instruction
system.cpu.op_class::SimdFloatReduceCmp             0      0.00%     45.00% # Class of executed instruction
system.cpu.op_class::SimdAes                        0      0.00%     45.00% # Class of executed instruction
system.cpu.op_class::SimdAesMix                     0      0.00%     45.00% # Class of executed instruction
system.cpu.op_class::SimdSha1Hash                   0      0.00%     45.00% # Class of executed instruction
system.cpu.op_class::SimdSha1Hash2                  0      0.00%     45.00% # Class of executed instruction
system.cpu.op_class::SimdSha256Hash                 0      0.00%     45.00% # Class of executed instruction
system.cpu.op_class::SimdSha256Hash2                0      0.00%     45.00% # Class of executed instruction
system.cpu.op_class::SimdShaSigma2                  0      0.00%     45.00% # Class of executed instruction
system.cpu.op_class::SimdShaSigma3                  0      0.00%     45.00% # Class of executed instruction
system.cpu.op_class::SimdPredAlu                    0      0.00%     45.00% # Class of executed instruction
system.cpu.op_class::MemRead                       11     55.00%    100.00% # Class of executed instruction
system.cpu.op_class::MemWrite                       0      0.00%    100.00% # Class of executed instruction
system.cpu.op_class::FloatMemRead                   0      0.00%    100.00% # Class of executed instruction
system.cpu.op_class::FloatMemWrite                  0      0.00%    100.00% # Class of executed instruction
system.cpu.op_class::IprAccess                      0      0.00%    100.00% # Class of executed instruction
system.cpu.op_class::InstPrefetch                   0      0.00%    100.00% # Class of executed instruction
system.cpu.op_class::total                         20                       # Class of executed instruction
system.cpu.workload.numSyscalls                     4                       # Number of system calls
system.l2.MSHRs.leapFrogMisses                      0                       # number of false blocks from MSHR
system.membus.snoop_filter.hit_multi_requests            0                       # Number of requests hitting in the snoop filter with multiple (>1) holders of the requested data.
system.membus.snoop_filter.hit_multi_snoops            0                       # Number of snoops hitting in the snoop filter with multiple (>1) holders of the requested data.
system.membus.snoop_filter.hit_single_requests            0                       # Number of requests hitting in the snoop filter with a single holder of the requested data.
system.membus.snoop_filter.hit_single_snoops            0                       # Number of snoops hitting in the snoop filter with a single holder of the requested data.
system.membus.snoop_filter.tot_requests         32317                       # Total number of requests made to the snoop filter.
system.membus.snoop_filter.tot_snoops               0                       # Total number of snoops made to the snoop filter.
system.switch_cpus.cc_regfile_reads         716048472                       # number of cc regfile reads
system.switch_cpus.cc_regfile_writes        729070253                       # number of cc regfile writes
system.switch_cpus.committedInsts          2000000001                       # Number of Instructions Simulated
system.switch_cpus.committedOps            2139986991                       # Number of Ops (including micro ops) Simulated
system.switch_cpus.cpi                       0.607177                       # CPI: Cycles Per Instruction
system.switch_cpus.cpi_total                 0.607177                       # CPI: Total CPI of All Threads
system.switch_cpus.idleCycles                  499567                       # Total number of cycles that the CPU has spent unscheduled due to idling
system.switch_cpus.iew.branchMispredicts     31873948                       # Number of branch mispredicts detected at execute
system.switch_cpus.iew.exec_branches        375628697                       # Number of branches executed
system.switch_cpus.iew.exec_nop               3072963                       # number of nop insts executed
system.switch_cpus.iew.exec_rate             2.175719                       # Inst execution rate
system.switch_cpus.iew.exec_refs            808778874                       # number of memory reference insts executed
system.switch_cpus.iew.exec_stores          193466701                       # Number of stores executed
system.switch_cpus.iew.exec_swp                     0                       # number of swp insts executed
system.switch_cpus.iew.iewBlockCycles       111998495                       # Number of cycles IEW is blocking
system.switch_cpus.iew.iewDispLoadInsts     664578162                       # Number of dispatched load instructions
system.switch_cpus.iew.iewDispNonSpecInsts        36702                       # Number of dispatched non-speculative instructions
system.switch_cpus.iew.iewDispSquashedInsts      5745171                       # Number of squashed instructions skipped by dispatch
system.switch_cpus.iew.iewDispStoreInsts    215544171                       # Number of dispatched store instructions
system.switch_cpus.iew.iewDispatchedInsts   2915340584                       # Number of instructions dispatched to IQ
system.switch_cpus.iew.iewExecLoadInsts     615312173                       # Number of load instructions executed
system.switch_cpus.iew.iewExecSquashedInsts     53753341                       # Number of squashed instructions skipped in execute
system.switch_cpus.iew.iewExecutedInsts    2642093929                       # Number of executed instructions
system.switch_cpus.iew.iewIQFullEvents        3105435                       # Number of times the IQ has become full, causing a stall
system.switch_cpus.iew.iewIdleCycles                0                       # Number of cycles IEW is idle
system.switch_cpus.iew.iewLSQFullEvents       2701098                       # Number of times the LSQ has become full, causing a stall
system.switch_cpus.iew.iewSquashCycles       28146673                       # Number of cycles IEW is squashing
system.switch_cpus.iew.iewUnblockCycles       8580477                       # Number of cycles IEW is unblocking
system.switch_cpus.iew.memOrderViolationEvents       102122                       # Number of memory order violations
system.switch_cpus.iew.predictedNotTakenIncorrect     17379353                       # Number of branches that were predicted not taken incorrectly
system.switch_cpus.iew.predictedTakenIncorrect     14494595                       # Number of branches that were predicted taken incorrectly
system.switch_cpus.iew.wb_consumers        2522920823                       # num instructions consuming a value
system.switch_cpus.iew.wb_count            2583369631                       # cumulative count of insts written-back
system.switch_cpus.iew.wb_fanout             0.647663                       # average fanout of values written-back
system.switch_cpus.iew.wb_producers        1634002810                       # num instructions producing a value
system.switch_cpus.iew.wb_rate               2.127361                       # insts written-back per cycle
system.switch_cpus.iew.wb_sent             2598244121                       # cumulative count of insts sent to commit
system.switch_cpus.int_regfile_reads       3203549052                       # number of integer regfile reads
system.switch_cpus.int_regfile_writes      2065431782                       # number of integer regfile writes
system.switch_cpus.ipc                       1.646966                       # IPC: Instructions Per Cycle
system.switch_cpus.ipc_total                 1.646966                       # IPC: Total IPC of All Threads
system.switch_cpus.iq.FU_type_0::No_OpClass         5982      0.00%      0.00% # Type of FU issued
system.switch_cpus.iq.FU_type_0::IntAlu    1774370887     65.82%     65.82% # Type of FU issued
system.switch_cpus.iq.FU_type_0::IntMult     33329071      1.24%     67.06% # Type of FU issued
system.switch_cpus.iq.FU_type_0::IntDiv       9615158      0.36%     67.41% # Type of FU issued
system.switch_cpus.iq.FU_type_0::FloatAdd       732013      0.03%     67.44% # Type of FU issued
system.switch_cpus.iq.FU_type_0::FloatCmp       683261      0.03%     67.46% # Type of FU issued
system.switch_cpus.iq.FU_type_0::FloatCvt       792883      0.03%     67.49% # Type of FU issued
system.switch_cpus.iq.FU_type_0::FloatMult            0      0.00%     67.49% # Type of FU issued
system.switch_cpus.iq.FU_type_0::FloatMultAcc            0      0.00%     67.49% # Type of FU issued
system.switch_cpus.iq.FU_type_0::FloatDiv         8569      0.00%     67.49% # Type of FU issued
system.switch_cpus.iq.FU_type_0::FloatMisc      4525616      0.17%     67.66% # Type of FU issued
system.switch_cpus.iq.FU_type_0::FloatSqrt            0      0.00%     67.66% # Type of FU issued
system.switch_cpus.iq.FU_type_0::SimdAdd       729963      0.03%     67.69% # Type of FU issued
system.switch_cpus.iq.FU_type_0::SimdAddAcc            0      0.00%     67.69% # Type of FU issued
system.switch_cpus.iq.FU_type_0::SimdAlu     16890965      0.63%     68.32% # Type of FU issued
system.switch_cpus.iq.FU_type_0::SimdCmp       364439      0.01%     68.33% # Type of FU issued
system.switch_cpus.iq.FU_type_0::SimdCvt       706931      0.03%     68.36% # Type of FU issued
system.switch_cpus.iq.FU_type_0::SimdMisc      6449279      0.24%     68.59% # Type of FU issued
system.switch_cpus.iq.FU_type_0::SimdMult            0      0.00%     68.59% # Type of FU issued
system.switch_cpus.iq.FU_type_0::SimdMultAcc            0      0.00%     68.59% # Type of FU issued
system.switch_cpus.iq.FU_type_0::SimdShift     12599223      0.47%     69.06% # Type of FU issued
system.switch_cpus.iq.FU_type_0::SimdShiftAcc            0      0.00%     69.06% # Type of FU issued
system.switch_cpus.iq.FU_type_0::SimdDiv            0      0.00%     69.06% # Type of FU issued
system.switch_cpus.iq.FU_type_0::SimdSqrt            0      0.00%     69.06% # Type of FU issued
system.switch_cpus.iq.FU_type_0::SimdFloatAdd            0      0.00%     69.06% # Type of FU issued
system.switch_cpus.iq.FU_type_0::SimdFloatAlu            0      0.00%     69.06% # Type of FU issued
system.switch_cpus.iq.FU_type_0::SimdFloatCmp            0      0.00%     69.06% # Type of FU issued
system.switch_cpus.iq.FU_type_0::SimdFloatCvt            0      0.00%     69.06% # Type of FU issued
system.switch_cpus.iq.FU_type_0::SimdFloatDiv            0      0.00%     69.06% # Type of FU issued
system.switch_cpus.iq.FU_type_0::SimdFloatMisc            0      0.00%     69.06% # Type of FU issued
system.switch_cpus.iq.FU_type_0::SimdFloatMult            0      0.00%     69.06% # Type of FU issued
system.switch_cpus.iq.FU_type_0::SimdFloatMultAcc            0      0.00%     69.06% # Type of FU issued
system.switch_cpus.iq.FU_type_0::SimdFloatSqrt            0      0.00%     69.06% # Type of FU issued
system.switch_cpus.iq.FU_type_0::SimdReduceAdd            0      0.00%     69.06% # Type of FU issued
system.switch_cpus.iq.FU_type_0::SimdReduceAlu            0      0.00%     69.06% # Type of FU issued
system.switch_cpus.iq.FU_type_0::SimdReduceCmp            0      0.00%     69.06% # Type of FU issued
system.switch_cpus.iq.FU_type_0::SimdFloatReduceAdd            0      0.00%     69.06% # Type of FU issued
system.switch_cpus.iq.FU_type_0::SimdFloatReduceCmp            0      0.00%     69.06% # Type of FU issued
system.switch_cpus.iq.FU_type_0::SimdAes            0      0.00%     69.06% # Type of FU issued
system.switch_cpus.iq.FU_type_0::SimdAesMix            0      0.00%     69.06% # Type of FU issued
system.switch_cpus.iq.FU_type_0::SimdSha1Hash            0      0.00%     69.06% # Type of FU issued
system.switch_cpus.iq.FU_type_0::SimdSha1Hash2            0      0.00%     69.06% # Type of FU issued
system.switch_cpus.iq.FU_type_0::SimdSha256Hash            0      0.00%     69.06% # Type of FU issued
system.switch_cpus.iq.FU_type_0::SimdSha256Hash2            0      0.00%     69.06% # Type of FU issued
system.switch_cpus.iq.FU_type_0::SimdShaSigma2            0      0.00%     69.06% # Type of FU issued
system.switch_cpus.iq.FU_type_0::SimdShaSigma3            0      0.00%     69.06% # Type of FU issued
system.switch_cpus.iq.FU_type_0::SimdPredAlu            0      0.00%     69.06% # Type of FU issued
system.switch_cpus.iq.FU_type_0::MemRead    635908462     23.59%     92.65% # Type of FU issued
system.switch_cpus.iq.FU_type_0::MemWrite    198134571      7.35%    100.00% # Type of FU issued
system.switch_cpus.iq.FU_type_0::FloatMemRead            0      0.00%    100.00% # Type of FU issued
system.switch_cpus.iq.FU_type_0::FloatMemWrite            0      0.00%    100.00% # Type of FU issued
system.switch_cpus.iq.FU_type_0::IprAccess            0      0.00%    100.00% # Type of FU issued
system.switch_cpus.iq.FU_type_0::InstPrefetch            0      0.00%    100.00% # Type of FU issued
system.switch_cpus.iq.FU_type_0::total     2695847273                       # Type of FU issued
system.switch_cpus.iq.fp_alu_accesses               0                       # Number of floating point alu accesses
system.switch_cpus.iq.fp_inst_queue_reads            0                       # Number of floating instruction queue reads
system.switch_cpus.iq.fp_inst_queue_wakeup_accesses            0                       # Number of floating instruction queue wakeup accesses
system.switch_cpus.iq.fp_inst_queue_writes            0                       # Number of floating instruction queue writes
system.switch_cpus.iq.fu_busy_cnt           185720927                       # FU busy when requested
system.switch_cpus.iq.fu_busy_rate           0.068891                       # FU busy rate (busy events/executed inst)
system.switch_cpus.iq.fu_full::No_OpClass            0      0.00%      0.00% # attempts to use FU when none available
system.switch_cpus.iq.fu_full::IntAlu        12318632      6.63%      6.63% # attempts to use FU when none available
system.switch_cpus.iq.fu_full::IntMult       97770832     52.64%     59.28% # attempts to use FU when none available
system.switch_cpus.iq.fu_full::IntDiv        52989887     28.53%     87.81% # attempts to use FU when none available
system.switch_cpus.iq.fu_full::FloatAdd             0      0.00%     87.81% # attempts to use FU when none available
system.switch_cpus.iq.fu_full::FloatCmp             0      0.00%     87.81% # attempts to use FU when none available
system.switch_cpus.iq.fu_full::FloatCvt             0      0.00%     87.81% # attempts to use FU when none available
system.switch_cpus.iq.fu_full::FloatMult            0      0.00%     87.81% # attempts to use FU when none available
system.switch_cpus.iq.fu_full::FloatMultAcc            0      0.00%     87.81% # attempts to use FU when none available
system.switch_cpus.iq.fu_full::FloatDiv             0      0.00%     87.81% # attempts to use FU when none available
system.switch_cpus.iq.fu_full::FloatMisc           10      0.00%     87.81% # attempts to use FU when none available
system.switch_cpus.iq.fu_full::FloatSqrt            0      0.00%     87.81% # attempts to use FU when none available
system.switch_cpus.iq.fu_full::SimdAdd              0      0.00%     87.81% # attempts to use FU when none available
system.switch_cpus.iq.fu_full::SimdAddAcc            0      0.00%     87.81% # attempts to use FU when none available
system.switch_cpus.iq.fu_full::SimdAlu              0      0.00%     87.81% # attempts to use FU when none available
system.switch_cpus.iq.fu_full::SimdCmp              0      0.00%     87.81% # attempts to use FU when none available
system.switch_cpus.iq.fu_full::SimdCvt              0      0.00%     87.81% # attempts to use FU when none available
system.switch_cpus.iq.fu_full::SimdMisc          1585      0.00%     87.81% # attempts to use FU when none available
system.switch_cpus.iq.fu_full::SimdMult             0      0.00%     87.81% # attempts to use FU when none available
system.switch_cpus.iq.fu_full::SimdMultAcc            0      0.00%     87.81% # attempts to use FU when none available
system.switch_cpus.iq.fu_full::SimdShift            0      0.00%     87.81% # attempts to use FU when none available
system.switch_cpus.iq.fu_full::SimdShiftAcc            0      0.00%     87.81% # attempts to use FU when none available
system.switch_cpus.iq.fu_full::SimdDiv              0      0.00%     87.81% # attempts to use FU when none available
system.switch_cpus.iq.fu_full::SimdSqrt             0      0.00%     87.81% # attempts to use FU when none available
system.switch_cpus.iq.fu_full::SimdFloatAdd            0      0.00%     87.81% # attempts to use FU when none available
system.switch_cpus.iq.fu_full::SimdFloatAlu            0      0.00%     87.81% # attempts to use FU when none available
system.switch_cpus.iq.fu_full::SimdFloatCmp            0      0.00%     87.81% # attempts to use FU when none available
system.switch_cpus.iq.fu_full::SimdFloatCvt            0      0.00%     87.81% # attempts to use FU when none available
system.switch_cpus.iq.fu_full::SimdFloatDiv            0      0.00%     87.81% # attempts to use FU when none available
system.switch_cpus.iq.fu_full::SimdFloatMisc            0      0.00%     87.81% # attempts to use FU when none available
system.switch_cpus.iq.fu_full::SimdFloatMult            0      0.00%     87.81% # attempts to use FU when none available
system.switch_cpus.iq.fu_full::SimdFloatMultAcc            0      0.00%     87.81% # attempts to use FU when none available
system.switch_cpus.iq.fu_full::SimdFloatSqrt            0      0.00%     87.81% # attempts to use FU when none available
system.switch_cpus.iq.fu_full::SimdReduceAdd            0      0.00%     87.81% # attempts to use FU when none available
system.switch_cpus.iq.fu_full::SimdReduceAlu            0      0.00%     87.81% # attempts to use FU when none available
system.switch_cpus.iq.fu_full::SimdReduceCmp            0      0.00%     87.81% # attempts to use FU when none available
system.switch_cpus.iq.fu_full::SimdFloatReduceAdd            0      0.00%     87.81% # attempts to use FU when none available
system.switch_cpus.iq.fu_full::SimdFloatReduceCmp            0      0.00%     87.81% # attempts to use FU when none available
system.switch_cpus.iq.fu_full::SimdAes              0      0.00%     87.81% # attempts to use FU when none available
system.switch_cpus.iq.fu_full::SimdAesMix            0      0.00%     87.81% # attempts to use FU when none available
system.switch_cpus.iq.fu_full::SimdSha1Hash            0      0.00%     87.81% # attempts to use FU when none available
system.switch_cpus.iq.fu_full::SimdSha1Hash2            0      0.00%     87.81% # attempts to use FU when none available
system.switch_cpus.iq.fu_full::SimdSha256Hash            0      0.00%     87.81% # attempts to use FU when none available
system.switch_cpus.iq.fu_full::SimdSha256Hash2            0      0.00%     87.81% # attempts to use FU when none available
system.switch_cpus.iq.fu_full::SimdShaSigma2            0      0.00%     87.81% # attempts to use FU when none available
system.switch_cpus.iq.fu_full::SimdShaSigma3            0      0.00%     87.81% # attempts to use FU when none available
system.switch_cpus.iq.fu_full::SimdPredAlu            0      0.00%     87.81% # attempts to use FU when none available
system.switch_cpus.iq.fu_full::MemRead       17523844      9.44%     97.25% # attempts to use FU when none available
system.switch_cpus.iq.fu_full::MemWrite       5116137      2.75%    100.00% # attempts to use FU when none available
system.switch_cpus.iq.fu_full::FloatMemRead            0      0.00%    100.00% # attempts to use FU when none available
system.switch_cpus.iq.fu_full::FloatMemWrite            0      0.00%    100.00% # attempts to use FU when none available
system.switch_cpus.iq.fu_full::IprAccess            0      0.00%    100.00% # attempts to use FU when none available
system.switch_cpus.iq.fu_full::InstPrefetch            0      0.00%    100.00% # attempts to use FU when none available
system.switch_cpus.iq.int_alu_accesses     2784260867                       # Number of integer alu accesses
system.switch_cpus.iq.int_inst_queue_reads   6600249596                       # Number of integer instruction queue reads
system.switch_cpus.iq.int_inst_queue_wakeup_accesses   2490247989                       # Number of integer instruction queue wakeup accesses
system.switch_cpus.iq.int_inst_queue_writes   3586196891                       # Number of integer instruction queue writes
system.switch_cpus.iq.iqInstsAdded         2912230919                       # Number of instructions added to the IQ (excludes non-spec)
system.switch_cpus.iq.iqInstsIssued        2695847273                       # Number of instructions issued
system.switch_cpus.iq.iqNonSpecInstsAdded        36702                       # Number of non-speculative instructions added to the IQ
system.switch_cpus.iq.iqSquashedInstsExamined    772280605                       # Number of squashed instructions iterated over during squash; mainly for profiling
system.switch_cpus.iq.iqSquashedInstsIssued      2593558                       # Number of squashed instructions issued
system.switch_cpus.iq.iqSquashedNonSpecRemoved        31988                       # Number of squashed non-spec instructions that were removed
system.switch_cpus.iq.iqSquashedOperandsExamined    563912022                       # Number of squashed operands that are examined and possibly removed from graph
system.switch_cpus.iq.issued_per_cycle::samples   1213854673                       # Number of insts issued each cycle
system.switch_cpus.iq.issued_per_cycle::mean     2.220898                       # Number of insts issued each cycle
system.switch_cpus.iq.issued_per_cycle::stdev     2.100437                       # Number of insts issued each cycle
system.switch_cpus.iq.issued_per_cycle::underflows            0      0.00%      0.00% # Number of insts issued each cycle
system.switch_cpus.iq.issued_per_cycle::0    352276428     29.02%     29.02% # Number of insts issued each cycle
system.switch_cpus.iq.issued_per_cycle::1    201335808     16.59%     45.61% # Number of insts issued each cycle
system.switch_cpus.iq.issued_per_cycle::2    176775929     14.56%     60.17% # Number of insts issued each cycle
system.switch_cpus.iq.issued_per_cycle::3    159194421     13.11%     73.29% # Number of insts issued each cycle
system.switch_cpus.iq.issued_per_cycle::4    131453414     10.83%     84.12% # Number of insts issued each cycle
system.switch_cpus.iq.issued_per_cycle::5     85552649      7.05%     91.16% # Number of insts issued each cycle
system.switch_cpus.iq.issued_per_cycle::6     59588322      4.91%     96.07% # Number of insts issued each cycle
system.switch_cpus.iq.issued_per_cycle::7     29152105      2.40%     98.47% # Number of insts issued each cycle
system.switch_cpus.iq.issued_per_cycle::8     18525597      1.53%    100.00% # Number of insts issued each cycle
system.switch_cpus.iq.issued_per_cycle::overflows            0      0.00%    100.00% # Number of insts issued each cycle
system.switch_cpus.iq.issued_per_cycle::min_value            0                       # Number of insts issued each cycle
system.switch_cpus.iq.issued_per_cycle::max_value            8                       # Number of insts issued each cycle
system.switch_cpus.iq.issued_per_cycle::total   1213854673                       # Number of insts issued each cycle
system.switch_cpus.iq.rate                   2.219984                       # Inst issue rate
system.switch_cpus.iq.vec_alu_accesses       97301351                       # Number of vector alu accesses
system.switch_cpus.iq.vec_inst_queue_reads    193614105                       # Number of vector instruction queue reads
system.switch_cpus.iq.vec_inst_queue_wakeup_accesses     93121642                       # Number of vector instruction queue wakeup accesses
system.switch_cpus.iq.vec_inst_queue_writes     98449608                       # Number of vector instruction queue writes
system.switch_cpus.memDep0.conflictingLoads     33016010                       # Number of conflicting loads.
system.switch_cpus.memDep0.conflictingStores     15760211                       # Number of conflicting stores.
system.switch_cpus.memDep0.insertedLoads    664578162                       # Number of loads inserted to the mem dependence unit.
system.switch_cpus.memDep0.insertedStores    215544171                       # Number of stores inserted to the mem dependence unit.
system.switch_cpus.misc_regfile_reads      6516229757                       # number of misc regfile reads
system.switch_cpus.misc_regfile_writes        2668085                       # number of misc regfile writes
system.switch_cpus.numCycles               1214354240                       # number of cpu cycles simulated
system.switch_cpus.numWorkItemsCompleted            0                       # number of work items this cpu completed
system.switch_cpus.numWorkItemsStarted              0                       # number of work items this cpu started
system.switch_cpus.pred_regfile_reads           28471                       # number of predicate regfile reads
system.switch_cpus.pred_regfile_writes          13875                       # number of predicate regfile writes
system.switch_cpus.timesIdled                   94366                       # Number of times that the entire CPU went into an idle state and unscheduled itself
system.switch_cpus.vec_regfile_reads         93493929                       # number of vector regfile reads
system.switch_cpus.vec_regfile_writes        67375570                       # number of vector regfile writes
system.tol2bus.snoop_filter.hit_multi_requests         6304                       # Number of requests hitting in the snoop filter with multiple (>1) holders of the requested data.
system.tol2bus.snoop_filter.hit_multi_snoops            0                       # Number of snoops hitting in the snoop filter with multiple (>1) holders of the requested data.
system.tol2bus.snoop_filter.hit_single_requests      8880270                       # Number of requests hitting in the snoop filter with a single holder of the requested data.
system.tol2bus.snoop_filter.hit_single_snoops        14135                       # Number of snoops hitting in the snoop filter with a single holder of the requested data.
system.tol2bus.snoop_filter.tot_requests     17761570                       # Total number of requests made to the snoop filter.
system.tol2bus.snoop_filter.tot_snoops          14135                       # Total number of snoops made to the snoop filter.
system.clk_domain.clock                          1000                       # Clock period in ticks
system.cpu.dcache.demand_hits::.cpu.data            5                       # number of demand (read+write) hits
system.cpu.dcache.demand_hits::.switch_cpus.data    721042013                       # number of demand (read+write) hits
system.cpu.dcache.demand_hits::total        721042018                       # number of demand (read+write) hits
system.cpu.dcache.overall_hits::.cpu.data            5                       # number of overall hits
system.cpu.dcache.overall_hits::.switch_cpus.data    721042013                       # number of overall hits
system.cpu.dcache.overall_hits::total       721042018                       # number of overall hits
system.cpu.dcache.demand_misses::.cpu.data            6                       # number of demand (read+write) misses
system.cpu.dcache.demand_misses::.switch_cpus.data     26004512                       # number of demand (read+write) misses
system.cpu.dcache.demand_misses::total       26004518                       # number of demand (read+write) misses
system.cpu.dcache.overall_misses::.cpu.data            6                       # number of overall misses
system.cpu.dcache.overall_misses::.switch_cpus.data     26004512                       # number of overall misses
system.cpu.dcache.overall_misses::total      26004518                       # number of overall misses
system.cpu.dcache.demand_miss_latency::.switch_cpus.data 314186058402                       # number of demand (read+write) miss cycles
system.cpu.dcache.demand_miss_latency::total 314186058402                       # number of demand (read+write) miss cycles
system.cpu.dcache.overall_miss_latency::.switch_cpus.data 314186058402                       # number of overall miss cycles
system.cpu.dcache.overall_miss_latency::total 314186058402                       # number of overall miss cycles
system.cpu.dcache.demand_accesses::.cpu.data           11                       # number of demand (read+write) accesses
system.cpu.dcache.demand_accesses::.switch_cpus.data    747046525                       # number of demand (read+write) accesses
system.cpu.dcache.demand_accesses::total    747046536                       # number of demand (read+write) accesses
system.cpu.dcache.overall_accesses::.cpu.data           11                       # number of overall (read+write) accesses
system.cpu.dcache.overall_accesses::.switch_cpus.data    747046525                       # number of overall (read+write) accesses
system.cpu.dcache.overall_accesses::total    747046536                       # number of overall (read+write) accesses
system.cpu.dcache.demand_miss_rate::.cpu.data     0.545455                       # miss rate for demand accesses
system.cpu.dcache.demand_miss_rate::.switch_cpus.data     0.034810                       # miss rate for demand accesses
system.cpu.dcache.demand_miss_rate::total     0.034810                       # miss rate for demand accesses
system.cpu.dcache.overall_miss_rate::.cpu.data     0.545455                       # miss rate for overall accesses
system.cpu.dcache.overall_miss_rate::.switch_cpus.data     0.034810                       # miss rate for overall accesses
system.cpu.dcache.overall_miss_rate::total     0.034810                       # miss rate for overall accesses
system.cpu.dcache.demand_avg_miss_latency::.switch_cpus.data 12081.982481                       # average overall miss latency
system.cpu.dcache.demand_avg_miss_latency::total 12081.979693                       # average overall miss latency
system.cpu.dcache.overall_avg_miss_latency::.switch_cpus.data 12081.982481                       # average overall miss latency
system.cpu.dcache.overall_avg_miss_latency::total 12081.979693                       # average overall miss latency
system.cpu.dcache.blocked_cycles::no_mshrs      8212236                       # number of cycles access was blocked
system.cpu.dcache.blocked_cycles::no_targets            0                       # number of cycles access was blocked
system.cpu.dcache.blocked::no_mshrs           1494124                       # number of cycles access was blocked
system.cpu.dcache.blocked::no_targets               0                       # number of cycles access was blocked
system.cpu.dcache.avg_blocked_cycles::no_mshrs     5.496355                       # average number of cycles each access was blocked
system.cpu.dcache.avg_blocked_cycles::no_targets          nan                       # average number of cycles each access was blocked
system.cpu.dcache.ghost_timestamp_misses            0                       # number of times timestamp policy causes a block to be inaccessible
system.cpu.dcache.ghost_commits                     0                       # number of cache lines moved from ghost to main
system.cpu.dcache.same_leapfrogs                    0                       # number of times leapfrogging occurs with a shared MSHR request
system.cpu.dcache.writebacks::.writebacks      8617226                       # number of writebacks
system.cpu.dcache.writebacks::total           8617226                       # number of writebacks
system.cpu.dcache.demand_mshr_hits::.switch_cpus.data     17386778                       # number of demand (read+write) MSHR hits
system.cpu.dcache.demand_mshr_hits::total     17386778                       # number of demand (read+write) MSHR hits
system.cpu.dcache.overall_mshr_hits::.switch_cpus.data     17386778                       # number of overall MSHR hits
system.cpu.dcache.overall_mshr_hits::total     17386778                       # number of overall MSHR hits
system.cpu.dcache.demand_mshr_misses::.switch_cpus.data      8617734                       # number of demand (read+write) MSHR misses
system.cpu.dcache.demand_mshr_misses::total      8617734                       # number of demand (read+write) MSHR misses
system.cpu.dcache.overall_mshr_misses::.switch_cpus.data      8617734                       # number of overall MSHR misses
system.cpu.dcache.overall_mshr_misses::total      8617734                       # number of overall MSHR misses
system.cpu.dcache.demand_mshr_miss_latency::.switch_cpus.data 106153580267                       # number of demand (read+write) MSHR miss cycles
system.cpu.dcache.demand_mshr_miss_latency::total 106153580267                       # number of demand (read+write) MSHR miss cycles
system.cpu.dcache.overall_mshr_miss_latency::.switch_cpus.data 106153580267                       # number of overall MSHR miss cycles
system.cpu.dcache.overall_mshr_miss_latency::total 106153580267                       # number of overall MSHR miss cycles
system.cpu.dcache.demand_mshr_miss_rate::.switch_cpus.data     0.011536                       # mshr miss rate for demand accesses
system.cpu.dcache.demand_mshr_miss_rate::total     0.011536                       # mshr miss rate for demand accesses
system.cpu.dcache.overall_mshr_miss_rate::.switch_cpus.data     0.011536                       # mshr miss rate for overall accesses
system.cpu.dcache.overall_mshr_miss_rate::total     0.011536                       # mshr miss rate for overall accesses
system.cpu.dcache.demand_avg_mshr_miss_latency::.switch_cpus.data 12318.038624                       # average overall mshr miss latency
system.cpu.dcache.demand_avg_mshr_miss_latency::total 12318.038624                       # average overall mshr miss latency
system.cpu.dcache.overall_avg_mshr_miss_latency::.switch_cpus.data 12318.038624                       # average overall mshr miss latency
system.cpu.dcache.overall_avg_mshr_miss_latency::total 12318.038624                       # average overall mshr miss latency
system.cpu.dcache.replacements                8617226                       # number of replacements
system.cpu.dcache.ReadReq_hits::.cpu.data            5                       # number of ReadReq hits
system.cpu.dcache.ReadReq_hits::.switch_cpus.data    557801106                       # number of ReadReq hits
system.cpu.dcache.ReadReq_hits::total       557801111                       # number of ReadReq hits
system.cpu.dcache.ReadReq_misses::.cpu.data            6                       # number of ReadReq misses
system.cpu.dcache.ReadReq_misses::.switch_cpus.data     16524469                       # number of ReadReq misses
system.cpu.dcache.ReadReq_misses::total      16524475                       # number of ReadReq misses
system.cpu.dcache.ReadReq_miss_latency::.switch_cpus.data 203419768000                       # number of ReadReq miss cycles
system.cpu.dcache.ReadReq_miss_latency::total 203419768000                       # number of ReadReq miss cycles
system.cpu.dcache.ReadReq_accesses::.cpu.data           11                       # number of ReadReq accesses(hits+misses)
system.cpu.dcache.ReadReq_accesses::.switch_cpus.data    574325575                       # number of ReadReq accesses(hits+misses)
system.cpu.dcache.ReadReq_accesses::total    574325586                       # number of ReadReq accesses(hits+misses)
system.cpu.dcache.ReadReq_miss_rate::.cpu.data     0.545455                       # miss rate for ReadReq accesses
system.cpu.dcache.ReadReq_miss_rate::.switch_cpus.data     0.028772                       # miss rate for ReadReq accesses
system.cpu.dcache.ReadReq_miss_rate::total     0.028772                       # miss rate for ReadReq accesses
system.cpu.dcache.ReadReq_avg_miss_latency::.switch_cpus.data 12310.215112                       # average ReadReq miss latency
system.cpu.dcache.ReadReq_avg_miss_latency::total 12310.210642                       # average ReadReq miss latency
system.cpu.dcache.ReadReq_mshr_hits::.switch_cpus.data      9335755                       # number of ReadReq MSHR hits
system.cpu.dcache.ReadReq_mshr_hits::total      9335755                       # number of ReadReq MSHR hits
system.cpu.dcache.ReadReq_mshr_misses::.switch_cpus.data      7188714                       # number of ReadReq MSHR misses
system.cpu.dcache.ReadReq_mshr_misses::total      7188714                       # number of ReadReq MSHR misses
system.cpu.dcache.ReadReq_mshr_miss_latency::.switch_cpus.data  88048626000                       # number of ReadReq MSHR miss cycles
system.cpu.dcache.ReadReq_mshr_miss_latency::total  88048626000                       # number of ReadReq MSHR miss cycles
system.cpu.dcache.ReadReq_mshr_miss_rate::.switch_cpus.data     0.012517                       # mshr miss rate for ReadReq accesses
system.cpu.dcache.ReadReq_mshr_miss_rate::total     0.012517                       # mshr miss rate for ReadReq accesses
system.cpu.dcache.ReadReq_avg_mshr_miss_latency::.switch_cpus.data 12248.174847                       # average ReadReq mshr miss latency
system.cpu.dcache.ReadReq_avg_mshr_miss_latency::total 12248.174847                       # average ReadReq mshr miss latency
system.cpu.dcache.WriteReq_hits::.switch_cpus.data    163240907                       # number of WriteReq hits
system.cpu.dcache.WriteReq_hits::total      163240907                       # number of WriteReq hits
system.cpu.dcache.WriteReq_misses::.switch_cpus.data      9480018                       # number of WriteReq misses
system.cpu.dcache.WriteReq_misses::total      9480018                       # number of WriteReq misses
system.cpu.dcache.WriteReq_miss_latency::.switch_cpus.data 110765785418                       # number of WriteReq miss cycles
system.cpu.dcache.WriteReq_miss_latency::total 110765785418                       # number of WriteReq miss cycles
system.cpu.dcache.WriteReq_accesses::.switch_cpus.data    172720925                       # number of WriteReq accesses(hits+misses)
system.cpu.dcache.WriteReq_accesses::total    172720925                       # number of WriteReq accesses(hits+misses)
system.cpu.dcache.WriteReq_miss_rate::.switch_cpus.data     0.054886                       # miss rate for WriteReq accesses
system.cpu.dcache.WriteReq_miss_rate::total     0.054886                       # miss rate for WriteReq accesses
system.cpu.dcache.WriteReq_avg_miss_latency::.switch_cpus.data 11684.132395                       # average WriteReq miss latency
system.cpu.dcache.WriteReq_avg_miss_latency::total 11684.132395                       # average WriteReq miss latency
system.cpu.dcache.WriteReq_mshr_hits::.switch_cpus.data      8051023                       # number of WriteReq MSHR hits
system.cpu.dcache.WriteReq_mshr_hits::total      8051023                       # number of WriteReq MSHR hits
system.cpu.dcache.WriteReq_mshr_misses::.switch_cpus.data      1428995                       # number of WriteReq MSHR misses
system.cpu.dcache.WriteReq_mshr_misses::total      1428995                       # number of WriteReq MSHR misses
system.cpu.dcache.WriteReq_mshr_miss_latency::.switch_cpus.data  18104474283                       # number of WriteReq MSHR miss cycles
system.cpu.dcache.WriteReq_mshr_miss_latency::total  18104474283                       # number of WriteReq MSHR miss cycles
system.cpu.dcache.WriteReq_mshr_miss_rate::.switch_cpus.data     0.008273                       # mshr miss rate for WriteReq accesses
system.cpu.dcache.WriteReq_mshr_miss_rate::total     0.008273                       # mshr miss rate for WriteReq accesses
system.cpu.dcache.WriteReq_avg_mshr_miss_latency::.switch_cpus.data 12669.375528                       # average WriteReq mshr miss latency
system.cpu.dcache.WriteReq_avg_mshr_miss_latency::total 12669.375528                       # average WriteReq mshr miss latency
system.cpu.dcache.WriteLineReq_misses::.switch_cpus.data           25                       # number of WriteLineReq misses
system.cpu.dcache.WriteLineReq_misses::total           25                       # number of WriteLineReq misses
system.cpu.dcache.WriteLineReq_miss_latency::.switch_cpus.data       504984                       # number of WriteLineReq miss cycles
system.cpu.dcache.WriteLineReq_miss_latency::total       504984                       # number of WriteLineReq miss cycles
system.cpu.dcache.WriteLineReq_accesses::.switch_cpus.data           25                       # number of WriteLineReq accesses(hits+misses)
system.cpu.dcache.WriteLineReq_accesses::total           25                       # number of WriteLineReq accesses(hits+misses)
system.cpu.dcache.WriteLineReq_miss_rate::.switch_cpus.data            1                       # miss rate for WriteLineReq accesses
system.cpu.dcache.WriteLineReq_miss_rate::total            1                       # miss rate for WriteLineReq accesses
system.cpu.dcache.WriteLineReq_avg_miss_latency::.switch_cpus.data 20199.360000                       # average WriteLineReq miss latency
system.cpu.dcache.WriteLineReq_avg_miss_latency::total 20199.360000                       # average WriteLineReq miss latency
system.cpu.dcache.WriteLineReq_mshr_misses::.switch_cpus.data           25                       # number of WriteLineReq MSHR misses
system.cpu.dcache.WriteLineReq_mshr_misses::total           25                       # number of WriteLineReq MSHR misses
system.cpu.dcache.WriteLineReq_mshr_miss_latency::.switch_cpus.data       479984                       # number of WriteLineReq MSHR miss cycles
system.cpu.dcache.WriteLineReq_mshr_miss_latency::total       479984                       # number of WriteLineReq MSHR miss cycles
system.cpu.dcache.WriteLineReq_mshr_miss_rate::.switch_cpus.data            1                       # mshr miss rate for WriteLineReq accesses
system.cpu.dcache.WriteLineReq_mshr_miss_rate::total            1                       # mshr miss rate for WriteLineReq accesses
system.cpu.dcache.WriteLineReq_avg_mshr_miss_latency::.switch_cpus.data 19199.360000                       # average WriteLineReq mshr miss latency
system.cpu.dcache.WriteLineReq_avg_mshr_miss_latency::total 19199.360000                       # average WriteLineReq mshr miss latency
system.cpu.dcache.SwapReq_hits::.switch_cpus.data          104                       # number of SwapReq hits
system.cpu.dcache.SwapReq_hits::total             104                       # number of SwapReq hits
system.cpu.dcache.SwapReq_misses::.switch_cpus.data            1                       # number of SwapReq misses
system.cpu.dcache.SwapReq_misses::total             1                       # number of SwapReq misses
system.cpu.dcache.SwapReq_miss_latency::.switch_cpus.data        13000                       # number of SwapReq miss cycles
system.cpu.dcache.SwapReq_miss_latency::total        13000                       # number of SwapReq miss cycles
system.cpu.dcache.SwapReq_accesses::.switch_cpus.data          105                       # number of SwapReq accesses(hits+misses)
system.cpu.dcache.SwapReq_accesses::total          105                       # number of SwapReq accesses(hits+misses)
system.cpu.dcache.SwapReq_miss_rate::.switch_cpus.data     0.009524                       # miss rate for SwapReq accesses
system.cpu.dcache.SwapReq_miss_rate::total     0.009524                       # miss rate for SwapReq accesses
system.cpu.dcache.SwapReq_avg_miss_latency::.switch_cpus.data        13000                       # average SwapReq miss latency
system.cpu.dcache.SwapReq_avg_miss_latency::total        13000                       # average SwapReq miss latency
system.cpu.dcache.SwapReq_mshr_misses::.switch_cpus.data            1                       # number of SwapReq MSHR misses
system.cpu.dcache.SwapReq_mshr_misses::total            1                       # number of SwapReq MSHR misses
system.cpu.dcache.SwapReq_mshr_miss_latency::.switch_cpus.data        12000                       # number of SwapReq MSHR miss cycles
system.cpu.dcache.SwapReq_mshr_miss_latency::total        12000                       # number of SwapReq MSHR miss cycles
system.cpu.dcache.SwapReq_mshr_miss_rate::.switch_cpus.data     0.009524                       # mshr miss rate for SwapReq accesses
system.cpu.dcache.SwapReq_mshr_miss_rate::total     0.009524                       # mshr miss rate for SwapReq accesses
system.cpu.dcache.SwapReq_avg_mshr_miss_latency::.switch_cpus.data        12000                       # average SwapReq mshr miss latency
system.cpu.dcache.SwapReq_avg_mshr_miss_latency::total        12000                       # average SwapReq mshr miss latency
system.cpu.dcache.ghosttags.tagsinuse               0                       # Cycle average of tags in use
system.cpu.dcache.ghosttags.total_refs              0                       # Total number of references to valid blocks.
system.cpu.dcache.ghosttags.sampled_refs            0                       # Sample count of references to valid blocks.
system.cpu.dcache.ghosttags.avg_refs              nan                       # Average number of references to valid blocks.
system.cpu.dcache.ghosttags.warmup_cycle            0                       # Cycle when the warmup percentage was hit.
system.cpu.dcache.ghosttags.tag_accesses            0                       # Number of tag accesses
system.cpu.dcache.ghosttags.data_accesses            0                       # Number of data accesses
system.cpu.dcache.ghosttags.repl_invalid            0                       # Number of initial replacements
system.cpu.dcache.ghosttags.repl_valid_tag            0                       # Number of local replacements
system.cpu.dcache.ghosttags.repl_valid_data            0                       # Number of global replacements
system.cpu.dcache.ghosttags.power_state.pwrStateResidencyTicks::UNDEFINED 5965016579000                       # Cumulative time (in ticks) in various power states
system.cpu.dcache.power_state.pwrStateResidencyTicks::UNDEFINED 5965016579000                       # Cumulative time (in ticks) in various power states
system.cpu.dcache.tags.tagsinuse           511.946999                       # Cycle average of tags in use
system.cpu.dcache.tags.total_refs           729659882                       # Total number of references to valid blocks.
system.cpu.dcache.tags.sampled_refs           8617738                       # Sample count of references to valid blocks.
system.cpu.dcache.tags.avg_refs             84.669536                       # Average number of references to valid blocks.
system.cpu.dcache.tags.warmup_cycle      5357839911000                       # Cycle when the warmup percentage was hit.
system.cpu.dcache.tags.occ_blocks::.cpu.data     0.000976                       # Average occupied blocks per requestor
system.cpu.dcache.tags.occ_blocks::.switch_cpus.data   511.946024                       # Average occupied blocks per requestor
system.cpu.dcache.tags.occ_percent::.cpu.data     0.000002                       # Average percentage of cache occupancy
system.cpu.dcache.tags.occ_percent::.switch_cpus.data     0.999895                       # Average percentage of cache occupancy
system.cpu.dcache.tags.occ_percent::total     0.999896                       # Average percentage of cache occupancy
system.cpu.dcache.tags.occ_task_id_blocks::1024          512                       # Occupied blocks per task id
system.cpu.dcache.tags.age_task_id_blocks_1024::0           23                       # Occupied blocks per task id
system.cpu.dcache.tags.age_task_id_blocks_1024::1          463                       # Occupied blocks per task id
system.cpu.dcache.tags.age_task_id_blocks_1024::2           21                       # Occupied blocks per task id
system.cpu.dcache.tags.age_task_id_blocks_1024::3            2                       # Occupied blocks per task id
system.cpu.dcache.tags.age_task_id_blocks_1024::4            3                       # Occupied blocks per task id
system.cpu.dcache.tags.occ_task_id_percent::1024            1                       # Percentage of cache occupancy per task id
system.cpu.dcache.tags.tag_accesses        5984990866                       # Number of tag accesses
system.cpu.dcache.tags.data_accesses       5984990866                       # Number of data accesses
system.cpu.dcache.tags.repl_invalid                 0                       # Number of initial replacements
system.cpu.dcache.tags.repl_valid_tag               0                       # Number of local replacements
system.cpu.dcache.tags.repl_valid_data              0                       # Number of global replacements
system.cpu.dcache.tags.power_state.pwrStateResidencyTicks::UNDEFINED 5965016579000                       # Cumulative time (in ticks) in various power states
system.cpu.dtb.instHits                             0                       # ITB inst hits
system.cpu.dtb.instMisses                           0                       # ITB inst misses
system.cpu.dtb.readHits                             0                       # DTB read hits
system.cpu.dtb.readMisses                           0                       # DTB read misses
system.cpu.dtb.writeHits                            0                       # DTB write hits
system.cpu.dtb.writeMisses                          0                       # DTB write misses
system.cpu.dtb.inserts                              0                       # Number of times an entry is inserted into the TLB
system.cpu.dtb.flushTlb                             2                       # Number of times complete TLB was flushed
system.cpu.dtb.flushTlbMva                          0                       # Number of times TLB was flushed by MVA
system.cpu.dtb.flushTlbMvaAsid                      0                       # Number of times TLB was flushed by MVA & ASID
system.cpu.dtb.flushTlbAsid                         0                       # Number of times TLB was flushed by ASID
system.cpu.dtb.flushedEntries                       0                       # Number of entries that have been flushed from TLB
system.cpu.dtb.alignFaults                          0                       # Number of TLB faults due to alignment restrictions
system.cpu.dtb.prefetchFaults                       0                       # Number of TLB faults due to prefetch
system.cpu.dtb.domainFaults                         0                       # Number of TLB faults due to domain restrictions
system.cpu.dtb.permsFaults                          0                       # Number of TLB faults due to permissions restrictions
system.cpu.dtb.readAccesses                         0                       # DTB read accesses
system.cpu.dtb.writeAccesses                        0                       # DTB write accesses
system.cpu.dtb.instAccesses                         0                       # ITB inst accesses
system.cpu.dtb.hits                                 0                       # Total TLB (inst and data) hits
system.cpu.dtb.misses                               0                       # Total TLB (inst and data) misses
system.cpu.dtb.accesses                             0                       # Total TLB (inst and data) accesses
system.cpu.dtb.stage2_mmu.stage2_tlb.instHits            0                       # ITB inst hits
system.cpu.dtb.stage2_mmu.stage2_tlb.instMisses            0                       # ITB inst misses
system.cpu.dtb.stage2_mmu.stage2_tlb.readHits            0                       # DTB read hits
system.cpu.dtb.stage2_mmu.stage2_tlb.readMisses            0                       # DTB read misses
system.cpu.dtb.stage2_mmu.stage2_tlb.writeHits            0                       # DTB write hits
system.cpu.dtb.stage2_mmu.stage2_tlb.writeMisses            0                       # DTB write misses
system.cpu.dtb.stage2_mmu.stage2_tlb.inserts            0                       # Number of times an entry is inserted into the TLB
system.cpu.dtb.stage2_mmu.stage2_tlb.flushTlb            0                       # Number of times complete TLB was flushed
system.cpu.dtb.stage2_mmu.stage2_tlb.flushTlbMva            0                       # Number of times TLB was flushed by MVA
system.cpu.dtb.stage2_mmu.stage2_tlb.flushTlbMvaAsid            0                       # Number of times TLB was flushed by MVA & ASID
system.cpu.dtb.stage2_mmu.stage2_tlb.flushTlbAsid            0                       # Number of times TLB was flushed by ASID
system.cpu.dtb.stage2_mmu.stage2_tlb.flushedEntries            0                       # Number of entries that have been flushed from TLB
system.cpu.dtb.stage2_mmu.stage2_tlb.alignFaults            0                       # Number of TLB faults due to alignment restrictions
system.cpu.dtb.stage2_mmu.stage2_tlb.prefetchFaults            0                       # Number of TLB faults due to prefetch
system.cpu.dtb.stage2_mmu.stage2_tlb.domainFaults            0                       # Number of TLB faults due to domain restrictions
system.cpu.dtb.stage2_mmu.stage2_tlb.permsFaults            0                       # Number of TLB faults due to permissions restrictions
system.cpu.dtb.stage2_mmu.stage2_tlb.readAccesses            0                       # DTB read accesses
system.cpu.dtb.stage2_mmu.stage2_tlb.writeAccesses            0                       # DTB write accesses
system.cpu.dtb.stage2_mmu.stage2_tlb.instAccesses            0                       # ITB inst accesses
system.cpu.dtb.stage2_mmu.stage2_tlb.hits            0                       # Total TLB (inst and data) hits
system.cpu.dtb.stage2_mmu.stage2_tlb.misses            0                       # Total TLB (inst and data) misses
system.cpu.dtb.stage2_mmu.stage2_tlb.accesses            0                       # Total TLB (inst and data) accesses
system.cpu.dtb.stage2_mmu.stage2_tlb.walker.walks            0                       # Table walker walks requested
system.cpu.dtb.stage2_mmu.stage2_tlb.walker.requestOrigin_Requested::Data            0                       # Table walker requests started/completed, data/inst
system.cpu.dtb.stage2_mmu.stage2_tlb.walker.requestOrigin_Requested::Inst            0                       # Table walker requests started/completed, data/inst
system.cpu.dtb.stage2_mmu.stage2_tlb.walker.requestOrigin_Requested::total            0                       # Table walker requests started/completed, data/inst
system.cpu.dtb.stage2_mmu.stage2_tlb.walker.requestOrigin_Completed::Data            0                       # Table walker requests started/completed, data/inst
system.cpu.dtb.stage2_mmu.stage2_tlb.walker.requestOrigin_Completed::Inst            0                       # Table walker requests started/completed, data/inst
system.cpu.dtb.stage2_mmu.stage2_tlb.walker.requestOrigin_Completed::total            0                       # Table walker requests started/completed, data/inst
system.cpu.dtb.stage2_mmu.stage2_tlb.walker.requestOrigin::total            0                       # Table walker requests started/completed, data/inst
system.cpu.dtb.stage2_mmu.stage2_tlb.walker.power_state.pwrStateResidencyTicks::UNDEFINED 5965016579000                       # Cumulative time (in ticks) in various power states
system.cpu.dtb.walker.walks                         0                       # Table walker walks requested
system.cpu.dtb.walker.requestOrigin_Requested::Data            0                       # Table walker requests started/completed, data/inst
system.cpu.dtb.walker.requestOrigin_Requested::Inst            0                       # Table walker requests started/completed, data/inst
system.cpu.dtb.walker.requestOrigin_Requested::total            0                       # Table walker requests started/completed, data/inst
system.cpu.dtb.walker.requestOrigin_Completed::Data            0                       # Table walker requests started/completed, data/inst
system.cpu.dtb.walker.requestOrigin_Completed::Inst            0                       # Table walker requests started/completed, data/inst
system.cpu.dtb.walker.requestOrigin_Completed::total            0                       # Table walker requests started/completed, data/inst
system.cpu.dtb.walker.requestOrigin::total            0                       # Table walker requests started/completed, data/inst
system.cpu.dtb.walker.power_state.pwrStateResidencyTicks::UNDEFINED 5965016579000                       # Cumulative time (in ticks) in various power states
system.cpu.icache.demand_hits::.cpu.inst           18                       # number of demand (read+write) hits
system.cpu.icache.demand_hits::.switch_cpus.inst    448610074                       # number of demand (read+write) hits
system.cpu.icache.demand_hits::total        448610092                       # number of demand (read+write) hits
system.cpu.icache.overall_hits::.cpu.inst           18                       # number of overall hits
system.cpu.icache.overall_hits::.switch_cpus.inst    448610074                       # number of overall hits
system.cpu.icache.overall_hits::total       448610092                       # number of overall hits
system.cpu.icache.demand_misses::.cpu.inst            2                       # number of demand (read+write) misses
system.cpu.icache.demand_misses::.switch_cpus.inst       305145                       # number of demand (read+write) misses
system.cpu.icache.demand_misses::total         305147                       # number of demand (read+write) misses
system.cpu.icache.overall_misses::.cpu.inst            2                       # number of overall misses
system.cpu.icache.overall_misses::.switch_cpus.inst       305145                       # number of overall misses
system.cpu.icache.overall_misses::total        305147                       # number of overall misses
system.cpu.icache.demand_miss_latency::.switch_cpus.inst   3916327498                       # number of demand (read+write) miss cycles
system.cpu.icache.demand_miss_latency::total   3916327498                       # number of demand (read+write) miss cycles
system.cpu.icache.overall_miss_latency::.switch_cpus.inst   3916327498                       # number of overall miss cycles
system.cpu.icache.overall_miss_latency::total   3916327498                       # number of overall miss cycles
system.cpu.icache.demand_accesses::.cpu.inst           20                       # number of demand (read+write) accesses
system.cpu.icache.demand_accesses::.switch_cpus.inst    448915219                       # number of demand (read+write) accesses
system.cpu.icache.demand_accesses::total    448915239                       # number of demand (read+write) accesses
system.cpu.icache.overall_accesses::.cpu.inst           20                       # number of overall (read+write) accesses
system.cpu.icache.overall_accesses::.switch_cpus.inst    448915219                       # number of overall (read+write) accesses
system.cpu.icache.overall_accesses::total    448915239                       # number of overall (read+write) accesses
system.cpu.icache.demand_miss_rate::.cpu.inst     0.100000                       # miss rate for demand accesses
system.cpu.icache.demand_miss_rate::.switch_cpus.inst     0.000680                       # miss rate for demand accesses
system.cpu.icache.demand_miss_rate::total     0.000680                       # miss rate for demand accesses
system.cpu.icache.overall_miss_rate::.cpu.inst     0.100000                       # miss rate for overall accesses
system.cpu.icache.overall_miss_rate::.switch_cpus.inst     0.000680                       # miss rate for overall accesses
system.cpu.icache.overall_miss_rate::total     0.000680                       # miss rate for overall accesses
system.cpu.icache.demand_avg_miss_latency::.switch_cpus.inst 12834.316466                       # average overall miss latency
system.cpu.icache.demand_avg_miss_latency::total 12834.232347                       # average overall miss latency
system.cpu.icache.overall_avg_miss_latency::.switch_cpus.inst 12834.316466                       # average overall miss latency
system.cpu.icache.overall_avg_miss_latency::total 12834.232347                       # average overall miss latency
system.cpu.icache.blocked_cycles::no_mshrs          807                       # number of cycles access was blocked
system.cpu.icache.blocked_cycles::no_targets            0                       # number of cycles access was blocked
system.cpu.icache.blocked::no_mshrs                10                       # number of cycles access was blocked
system.cpu.icache.blocked::no_targets               0                       # number of cycles access was blocked
system.cpu.icache.avg_blocked_cycles::no_mshrs    80.700000                       # average number of cycles each access was blocked
system.cpu.icache.avg_blocked_cycles::no_targets          nan                       # average number of cycles each access was blocked
system.cpu.icache.ghost_timestamp_misses            0                       # number of times timestamp policy causes a block to be inaccessible
system.cpu.icache.ghost_commits                     0                       # number of cache lines moved from ghost to main
system.cpu.icache.same_leapfrogs                    0                       # number of times leapfrogging occurs with a shared MSHR request
system.cpu.icache.writebacks::.writebacks       263044                       # number of writebacks
system.cpu.icache.writebacks::total            263044                       # number of writebacks
system.cpu.icache.demand_mshr_hits::.switch_cpus.inst        41588                       # number of demand (read+write) MSHR hits
system.cpu.icache.demand_mshr_hits::total        41588                       # number of demand (read+write) MSHR hits
system.cpu.icache.overall_mshr_hits::.switch_cpus.inst        41588                       # number of overall MSHR hits
system.cpu.icache.overall_mshr_hits::total        41588                       # number of overall MSHR hits
system.cpu.icache.demand_mshr_misses::.switch_cpus.inst       263557                       # number of demand (read+write) MSHR misses
system.cpu.icache.demand_mshr_misses::total       263557                       # number of demand (read+write) MSHR misses
system.cpu.icache.overall_mshr_misses::.switch_cpus.inst       263557                       # number of overall MSHR misses
system.cpu.icache.overall_mshr_misses::total       263557                       # number of overall MSHR misses
system.cpu.icache.demand_mshr_miss_latency::.switch_cpus.inst   3344498499                       # number of demand (read+write) MSHR miss cycles
system.cpu.icache.demand_mshr_miss_latency::total   3344498499                       # number of demand (read+write) MSHR miss cycles
system.cpu.icache.overall_mshr_miss_latency::.switch_cpus.inst   3344498499                       # number of overall MSHR miss cycles
system.cpu.icache.overall_mshr_miss_latency::total   3344498499                       # number of overall MSHR miss cycles
system.cpu.icache.demand_mshr_miss_rate::.switch_cpus.inst     0.000587                       # mshr miss rate for demand accesses
system.cpu.icache.demand_mshr_miss_rate::total     0.000587                       # mshr miss rate for demand accesses
system.cpu.icache.overall_mshr_miss_rate::.switch_cpus.inst     0.000587                       # mshr miss rate for overall accesses
system.cpu.icache.overall_mshr_miss_rate::total     0.000587                       # mshr miss rate for overall accesses
system.cpu.icache.demand_avg_mshr_miss_latency::.switch_cpus.inst 12689.848871                       # average overall mshr miss latency
system.cpu.icache.demand_avg_mshr_miss_latency::total 12689.848871                       # average overall mshr miss latency
system.cpu.icache.overall_avg_mshr_miss_latency::.switch_cpus.inst 12689.848871                       # average overall mshr miss latency
system.cpu.icache.overall_avg_mshr_miss_latency::total 12689.848871                       # average overall mshr miss latency
system.cpu.icache.replacements                 263044                       # number of replacements
system.cpu.icache.ReadReq_hits::.cpu.inst           18                       # number of ReadReq hits
system.cpu.icache.ReadReq_hits::.switch_cpus.inst    448610074                       # number of ReadReq hits
system.cpu.icache.ReadReq_hits::total       448610092                       # number of ReadReq hits
system.cpu.icache.ReadReq_misses::.cpu.inst            2                       # number of ReadReq misses
system.cpu.icache.ReadReq_misses::.switch_cpus.inst       305145                       # number of ReadReq misses
system.cpu.icache.ReadReq_misses::total        305147                       # number of ReadReq misses
system.cpu.icache.ReadReq_miss_latency::.switch_cpus.inst   3916327498                       # number of ReadReq miss cycles
system.cpu.icache.ReadReq_miss_latency::total   3916327498                       # number of ReadReq miss cycles
system.cpu.icache.ReadReq_accesses::.cpu.inst           20                       # number of ReadReq accesses(hits+misses)
system.cpu.icache.ReadReq_accesses::.switch_cpus.inst    448915219                       # number of ReadReq accesses(hits+misses)
system.cpu.icache.ReadReq_accesses::total    448915239                       # number of ReadReq accesses(hits+misses)
system.cpu.icache.ReadReq_miss_rate::.cpu.inst     0.100000                       # miss rate for ReadReq accesses
system.cpu.icache.ReadReq_miss_rate::.switch_cpus.inst     0.000680                       # miss rate for ReadReq accesses
system.cpu.icache.ReadReq_miss_rate::total     0.000680                       # miss rate for ReadReq accesses
system.cpu.icache.ReadReq_avg_miss_latency::.switch_cpus.inst 12834.316466                       # average ReadReq miss latency
system.cpu.icache.ReadReq_avg_miss_latency::total 12834.232347                       # average ReadReq miss latency
system.cpu.icache.ReadReq_mshr_hits::.switch_cpus.inst        41588                       # number of ReadReq MSHR hits
system.cpu.icache.ReadReq_mshr_hits::total        41588                       # number of ReadReq MSHR hits
system.cpu.icache.ReadReq_mshr_misses::.switch_cpus.inst       263557                       # number of ReadReq MSHR misses
system.cpu.icache.ReadReq_mshr_misses::total       263557                       # number of ReadReq MSHR misses
system.cpu.icache.ReadReq_mshr_miss_latency::.switch_cpus.inst   3344498499                       # number of ReadReq MSHR miss cycles
system.cpu.icache.ReadReq_mshr_miss_latency::total   3344498499                       # number of ReadReq MSHR miss cycles
system.cpu.icache.ReadReq_mshr_miss_rate::.switch_cpus.inst     0.000587                       # mshr miss rate for ReadReq accesses
system.cpu.icache.ReadReq_mshr_miss_rate::total     0.000587                       # mshr miss rate for ReadReq accesses
system.cpu.icache.ReadReq_avg_mshr_miss_latency::.switch_cpus.inst 12689.848871                       # average ReadReq mshr miss latency
system.cpu.icache.ReadReq_avg_mshr_miss_latency::total 12689.848871                       # average ReadReq mshr miss latency
system.cpu.icache.ghosttags.tagsinuse               0                       # Cycle average of tags in use
system.cpu.icache.ghosttags.total_refs              0                       # Total number of references to valid blocks.
system.cpu.icache.ghosttags.sampled_refs            0                       # Sample count of references to valid blocks.
system.cpu.icache.ghosttags.avg_refs              nan                       # Average number of references to valid blocks.
system.cpu.icache.ghosttags.warmup_cycle            0                       # Cycle when the warmup percentage was hit.
system.cpu.icache.ghosttags.tag_accesses            0                       # Number of tag accesses
system.cpu.icache.ghosttags.data_accesses            0                       # Number of data accesses
system.cpu.icache.ghosttags.repl_invalid            0                       # Number of initial replacements
system.cpu.icache.ghosttags.repl_valid_tag            0                       # Number of local replacements
system.cpu.icache.ghosttags.repl_valid_data            0                       # Number of global replacements
system.cpu.icache.ghosttags.power_state.pwrStateResidencyTicks::UNDEFINED 5965016579000                       # Cumulative time (in ticks) in various power states
system.cpu.icache.power_state.pwrStateResidencyTicks::UNDEFINED 5965016579000                       # Cumulative time (in ticks) in various power states
system.cpu.icache.tags.tagsinuse           501.896520                       # Cycle average of tags in use
system.cpu.icache.tags.total_refs           448873651                       # Total number of references to valid blocks.
system.cpu.icache.tags.sampled_refs            263559                       # Sample count of references to valid blocks.
system.cpu.icache.tags.avg_refs           1703.123972                       # Average number of references to valid blocks.
system.cpu.icache.tags.warmup_cycle      5357839910000                       # Cycle when the warmup percentage was hit.
system.cpu.icache.tags.occ_blocks::.cpu.inst     0.288049                       # Average occupied blocks per requestor
system.cpu.icache.tags.occ_blocks::.switch_cpus.inst   501.608471                       # Average occupied blocks per requestor
system.cpu.icache.tags.occ_percent::.cpu.inst     0.000563                       # Average percentage of cache occupancy
system.cpu.icache.tags.occ_percent::.switch_cpus.inst     0.979704                       # Average percentage of cache occupancy
system.cpu.icache.tags.occ_percent::total     0.980267                       # Average percentage of cache occupancy
system.cpu.icache.tags.occ_task_id_blocks::1024          512                       # Occupied blocks per task id
system.cpu.icache.tags.age_task_id_blocks_1024::1           20                       # Occupied blocks per task id
system.cpu.icache.tags.age_task_id_blocks_1024::2           18                       # Occupied blocks per task id
system.cpu.icache.tags.age_task_id_blocks_1024::3           38                       # Occupied blocks per task id
system.cpu.icache.tags.age_task_id_blocks_1024::4          436                       # Occupied blocks per task id
system.cpu.icache.tags.occ_task_id_percent::1024            1                       # Percentage of cache occupancy per task id
[...]
system.switch_cpus.fetch.cycles             716857306                       # Number of cycles fetch has run and was not squashing or blocked
system.switch_cpus.fetch.squashCycles        57048664                       # Number of cycles fetch has spent squashing
system.switch_cpus.fetch.miscStallCycles         1372                       # Number of cycles fetch has spent waiting on interrupts,or bad addresses, or out of MSHRs
system.switch_cpus.fetch.pendingTrapStallCycles         6460                       # Number of stall cycles due to pending traps
system.switch_cpus.fetch.icacheWaitRetryStallCycles           61                       # Number of stall cycles due to full MSHR
system.switch_cpus.fetch.cacheLines         448915220                       # Number of cache lines fetched
system.switch_cpus.fetch.icacheSquashes      11265559                       # Number of outstanding Icache misses that were squashed
system.switch_cpus.fetch.nisnDist::samples   1213854673                       # Number of instructions fetched each cycle (Total)
system.switch_cpus.fetch.nisnDist::mean      2.705260                       # Number of instructions fetched each cycle (Total)
system.switch_cpus.fetch.nisnDist::stdev     3.203958                       # Number of instructions fetched each cycle (Total)
system.switch_cpus.fetch.nisnDist::underflows            0      0.00%      0.00% # Number of instructions fetched each cycle (Total)
system.switch_cpus.fetch.nisnDist::0        588512805     48.48%     48.48% # Number of instructions fetched each cycle (Total)
system.switch_cpus.fetch.nisnDist::1         70478922      5.81%     54.29% # Number of instructions fetched each cycle (Total)
system.switch_cpus.fetch.nisnDist::2         61035132      5.03%     59.32% # Number of instructions fetched each cycle (Total)
system.switch_cpus.fetch.nisnDist::3         56980801      4.69%     64.01% # Number of instructions fetched each cycle (Total)
system.switch_cpus.fetch.nisnDist::4         69947064      5.76%     69.77% # Number of instructions fetched each cycle (Total)
system.switch_cpus.fetch.nisnDist::5         31474583      2.59%     72.37% # Number of instructions fetched each cycle (Total)
system.switch_cpus.fetch.nisnDist::6         73704620      6.07%     78.44% # Number of instructions fetched each cycle (Total)
system.switch_cpus.fetch.nisnDist::7         52853690      4.35%     82.79% # Number of instructions fetched each cycle (Total)
system.switch_cpus.fetch.nisnDist::8        208867056     17.21%    100.00% # Number of instructions fetched each cycle (Total)
system.switch_cpus.fetch.nisnDist::overflows            0      0.00%    100.00% # Number of instructions fetched each cycle (Total)
system.switch_cpus.fetch.nisnDist::min_value            0                       # Number of instructions fetched each cycle (Total)
system.switch_cpus.fetch.nisnDist::max_value            8                       # Number of instructions fetched each cycle (Total)
system.switch_cpus.fetch.nisnDist::total   1213854673                       # Number of instructions fetched each cycle (Total)
system.switch_cpus.fetch.branchRate          0.415470                       # Number of branch fetches per cycle
system.switch_cpus.fetch.rate                2.537388                       # Number of inst fetches per cycle
system.switch_cpus.itb.instHits                     0                       # ITB inst hits
system.switch_cpus.itb.instMisses                   0                       # ITB inst misses
system.switch_cpus.itb.readHits                     0                       # DTB read hits
system.switch_cpus.itb.readMisses                   0                       # DTB read misses
system.switch_cpus.itb.writeHits                    0                       # DTB write hits
system.switch_cpus.itb.writeMisses                  0                       # DTB write misses
system.switch_cpus.itb.inserts                      0                       # Number of times an entry is inserted into the TLB
system.switch_cpus.itb.flushTlb                     2                       # Number of times complete TLB was flushed
system.switch_cpus.itb.flushTlbMva                  0                       # Number of times TLB was flushed by MVA
system.switch_cpus.itb.flushTlbMvaAsid              0                       # Number of times TLB was flushed by MVA & ASID
system.switch_cpus.itb.flushTlbAsid                 0                       # Number of times TLB was flushed by ASID
system.switch_cpus.itb.flushedEntries               0                       # Number of entries that have been flushed from TLB
system.switch_cpus.itb.alignFaults                  0                       # Number of TLB faults due to alignment restrictions
system.switch_cpus.itb.prefetchFaults               0                       # Number of TLB faults due to prefetch
system.switch_cpus.itb.domainFaults                 0                       # Number of TLB faults due to domain restrictions
system.switch_cpus.itb.permsFaults                  0                       # Number of TLB faults due to permissions restrictions
system.switch_cpus.itb.readAccesses                 0                       # DTB read accesses
system.switch_cpus.itb.writeAccesses                0                       # DTB write accesses
system.switch_cpus.itb.instAccesses                 0                       # ITB inst accesses
system.switch_cpus.itb.hits                         0                       # Total TLB (inst and data) hits
system.switch_cpus.itb.misses                       0                       # Total TLB (inst and data) misses
system.switch_cpus.itb.accesses                     0                       # Total TLB (inst and data) accesses
system.switch_cpus.itb.stage2_mmu.stage2_tlb.instHits            0                       # ITB inst hits
system.switch_cpus.itb.stage2_mmu.stage2_tlb.instMisses            0                       # ITB inst misses
system.switch_cpus.itb.stage2_mmu.stage2_tlb.readHits            0                       # DTB read hits
system.switch_cpus.itb.stage2_mmu.stage2_tlb.readMisses            0                       # DTB read misses
system.switch_cpus.itb.stage2_mmu.stage2_tlb.writeHits            0                       # DTB write hits
system.switch_cpus.itb.stage2_mmu.stage2_tlb.writeMisses            0                       # DTB write misses
system.switch_cpus.itb.stage2_mmu.stage2_tlb.inserts            0                       # Number of times an entry is inserted into the TLB
system.switch_cpus.itb.stage2_mmu.stage2_tlb.flushTlb            0                       # Number of times complete TLB was flushed
system.switch_cpus.itb.stage2_mmu.stage2_tlb.flushTlbMva            0                       # Number of times TLB was flushed by MVA
system.switch_cpus.itb.stage2_mmu.stage2_tlb.flushTlbMvaAsid            0                       # Number of times TLB was flushed by MVA & ASID
system.switch_cpus.itb.stage2_mmu.stage2_tlb.flushTlbAsid            0                       # Number of times TLB was flushed by ASID
system.switch_cpus.itb.stage2_mmu.stage2_tlb.flushedEntries            0                       # Number of entries that have been flushed from TLB
system.switch_cpus.itb.stage2_mmu.stage2_tlb.alignFaults            0                       # Number of TLB faults due to alignment restrictions
system.switch_cpus.itb.stage2_mmu.stage2_tlb.prefetchFaults            0                       # Number of TLB faults due to prefetch
system.switch_cpus.itb.stage2_mmu.stage2_tlb.domainFaults            0                       # Number of TLB faults due to domain restrictions
system.switch_cpus.itb.stage2_mmu.stage2_tlb.permsFaults            0                       # Number of TLB faults due to permissions restrictions
system.switch_cpus.itb.stage2_mmu.stage2_tlb.readAccesses            0                       # DTB read accesses
system.switch_cpus.itb.stage2_mmu.stage2_tlb.writeAccesses            0                       # DTB write accesses
system.switch_cpus.itb.stage2_mmu.stage2_tlb.instAccesses            0                       # ITB inst accesses
system.switch_cpus.itb.stage2_mmu.stage2_tlb.hits            0                       # Total TLB (inst and data) hits
system.switch_cpus.itb.stage2_mmu.stage2_tlb.misses            0                       # Total TLB (inst and data) misses
system.switch_cpus.itb.stage2_mmu.stage2_tlb.accesses            0                       # Total TLB (inst and data) accesses
system.switch_cpus.itb.stage2_mmu.stage2_tlb.walker.walks            0                       # Table walker walks requested
system.switch_cpus.itb.stage2_mmu.stage2_tlb.walker.requestOrigin_Requested::Data            0                       # Table walker requests started/completed, data/inst
system.switch_cpus.itb.stage2_mmu.stage2_tlb.walker.requestOrigin_Requested::Inst            0                       # Table walker requests started/completed, data/inst
system.switch_cpus.itb.stage2_mmu.stage2_tlb.walker.requestOrigin_Requested::total            0                       # Table walker requests started/completed, data/inst
system.switch_cpus.itb.stage2_mmu.stage2_tlb.walker.requestOrigin_Completed::Data            0                       # Table walker requests started/completed, data/inst
system.switch_cpus.itb.stage2_mmu.stage2_tlb.walker.requestOrigin_Completed::Inst            0                       # Table walker requests started/completed, data/inst
system.switch_cpus.itb.stage2_mmu.stage2_tlb.walker.requestOrigin_Completed::total            0                       # Table walker requests started/completed, data/inst
system.switch_cpus.itb.stage2_mmu.stage2_tlb.walker.requestOrigin::total            0                       # Table walker requests started/completed, data/inst
system.switch_cpus.itb.stage2_mmu.stage2_tlb.walker.power_state.pwrStateResidencyTicks::UNDEFINED 5965016579000                       # Cumulative time (in ticks) in various power states
system.switch_cpus.itb.walker.walks                 0                       # Table walker walks requested
system.switch_cpus.itb.walker.requestOrigin_Requested::Data            0                       # Table walker requests started/completed, data/inst
system.switch_cpus.itb.walker.requestOrigin_Requested::Inst            0                       # Table walker requests started/completed, data/inst
system.switch_cpus.itb.walker.requestOrigin_Requested::total            0                       # Table walker requests started/completed, data/inst
system.switch_cpus.itb.walker.requestOrigin_Completed::Data            0                       # Table walker requests started/completed, data/inst
system.switch_cpus.itb.walker.requestOrigin_Completed::Inst            0                       # Table walker requests started/completed, data/inst
system.switch_cpus.itb.walker.requestOrigin_Completed::total            0                       # Table walker requests started/completed, data/inst
system.switch_cpus.itb.walker.requestOrigin::total            0                       # Table walker requests started/completed, data/inst
system.switch_cpus.itb.walker.power_state.pwrStateResidencyTicks::UNDEFINED 5965016579000                       # Cumulative time (in ticks) in various power states
system.switch_cpus.lsq0.forwLoads            25582755                       # Number of loads that had data forwarded from stores
system.switch_cpus.lsq0.squashedLoads       183257009                       # Number of loads squashed
system.switch_cpus.lsq0.ignoredResponses       240401                       # Number of memory responses ignored because the instruction is squashed
system.switch_cpus.lsq0.memOrderViolation       102122                       # Number of memory ordering violations
system.switch_cpus.lsq0.squashedStores       43005408                       # Number of stores squashed
system.switch_cpus.lsq0.rescheduledLoads     13132564                       # Number of loads that were rescheduled
system.switch_cpus.lsq0.blockedByCache        1360105                       # Number of times an access to memory failed due to the cache being blocked
system.switch_cpus.power_state.pwrStateResidencyTicks::OFF 607176669500                       # Cumulative time (in ticks) in various power states
system.switch_cpus.rename.squashCycles       28146673                       # Number of cycles rename is squashing
system.switch_cpus.rename.idleCycles        422927193                       # Number of cycles rename is idle
system.switch_cpus.rename.blockCycles       142305386                       # Number of cycles rename is blocking
system.switch_cpus.rename.serializeStallCycles      3885052                       # count of cycles rename stalledfor serializing inst
system.switch_cpus.rename.runCycles         541890243                       # Number of cycles rename is running
system.switch_cpus.rename.unblockCycles      74700123                       # Number of cycles rename is unblocking
system.switch_cpus.rename.renamedInsts     3084131967                       # Number of instructions processed by rename
system.switch_cpus.rename.ROBFullEvents         44391                       # Number of times rename has blocked due to ROB full
system.switch_cpus.rename.IQFullEvents       42891033                       # Number of times rename has blocked due to IQ full
system.switch_cpus.rename.LQFullEvents       17674880                       # Number of times rename has blocked due to LQ full
system.switch_cpus.rename.SQFullEvents       10109147                       # Number of times rename has blocked due to SQ full
system.switch_cpus.rename.renamedOperands   3462612735                       # Number of destination operands rename has renamed
system.switch_cpus.rename.lookups          5002330238                       # Number of register rename lookups that rename has made
system.switch_cpus.rename.intLookups       3745001619                       # Number of integer rename lookups
system.switch_cpus.rename.vecLookups         96251451                       # Number of vector rename lookups
system.switch_cpus.rename.vecPredLookups        28694                       # Number of vector predicate rename lookups
system.switch_cpus.rename.committedMaps    2339490823                       # Number of HB maps that are committed
system.switch_cpus.rename.undoneMaps       1123121874                       # Number of HB maps that are undone due to squashing
system.switch_cpus.rename.serializing          200120                       # count of serializing insts renamed
system.switch_cpus.rename.tempSerializing         5303                       # count of temporary serializing insts renamed
system.switch_cpus.rename.skidInsts         112734341                       # count of insts added to the skid buffer
system.switch_cpus.rob.reads               3882944896                       # The number of ROB reads
system.switch_cpus.rob.writes              5943679729                       # The number of ROB writes
system.switch_cpus.thread0.numInsts        2000000001                       # Number of Instructions committed
system.switch_cpus.thread0.numOps          2139986991                       # Number of Ops committed
system.switch_cpus.thread0.numMemRefs               0                       # Number of Memory References
system.tol2bus.trans_dist::ReadResp           7452192                       # Transaction distribution
system.tol2bus.trans_dist::WritebackDirty      5798155                       # Transaction distribution
system.tol2bus.trans_dist::WritebackClean      3082115                       # Transaction distribution
system.tol2bus.trans_dist::HardPFReq            41756                       # Transaction distribution
system.tol2bus.trans_dist::UpgradeReq               3                       # Transaction distribution
system.tol2bus.trans_dist::UpgradeResp              3                       # Transaction distribution
system.tol2bus.trans_dist::ReadExReq          1375457                       # Transaction distribution
system.tol2bus.trans_dist::ReadExResp         1375457                       # Transaction distribution
system.tol2bus.trans_dist::ReadCleanReq        263559                       # Transaction distribution
system.tol2bus.trans_dist::ReadSharedReq      7188633                       # Transaction distribution
system.tol2bus.trans_dist::InvalidateReq        53648                       # Transaction distribution
system.tol2bus.trans_dist::InvalidateResp        53648                       # Transaction distribution
system.tol2bus.pkt_count_system.cpu.icache.mem_side_port::system.l2.cpu_side_port       790160                       # Packet count per connected requestor and responder (bytes)
system.tol2bus.pkt_count_system.cpu.dcache.mem_side_port::system.l2.cpu_side_port     25852708                       # Packet count per connected requestor and responder (bytes)
system.tol2bus.pkt_count::total              26642868                       # Packet count per connected requestor and responder (bytes)
system.tol2bus.pkt_size_system.cpu.icache.mem_side_port::system.l2.cpu_side_port     33702464                       # Cumulative packet size per connected requestor and responder (bytes)
system.tol2bus.pkt_size_system.cpu.dcache.mem_side_port::system.l2.cpu_side_port   1099604224                       # Cumulative packet size per connected requestor and responder (bytes)
system.tol2bus.pkt_size::total             1133306688                       # Cumulative packet size per connected requestor and responder (bytes)
system.tol2bus.snoops                           41758                       # Total snoops (count)
system.tol2bus.snoopTraffic                       128                       # Total snoop traffic (bytes)
system.tol2bus.snoop_fanout::samples          8923056                       # Request fanout histogram
system.tol2bus.snoop_fanout::mean            0.002291                       # Request fanout histogram
system.tol2bus.snoop_fanout::stdev           0.047805                       # Request fanout histogram
system.tol2bus.snoop_fanout::underflows             0      0.00%      0.00% # Request fanout histogram
system.tol2bus.snoop_fanout::0                8902617     99.77%     99.77% # Request fanout histogram
system.tol2bus.snoop_fanout::1                  20439      0.23%    100.00% # Request fanout histogram
system.tol2bus.snoop_fanout::2                      0      0.00%    100.00% # Request fanout histogram
system.tol2bus.snoop_fanout::overflows              0      0.00%    100.00% # Request fanout histogram
system.tol2bus.snoop_fanout::min_value              0                       # Request fanout histogram
system.tol2bus.snoop_fanout::max_value              1                       # Request fanout histogram
system.tol2bus.snoop_fanout::total            8923056                       # Request fanout histogram
system.tol2bus.power_state.pwrStateResidencyTicks::UNDEFINED 5965016579000                       # Cumulative time (in ticks) in various power states
system.tol2bus.reqLayer0.occupancy        17761051000                       # Layer occupancy (ticks)
system.tol2bus.reqLayer0.utilization              2.9                       # Layer utilization (%)
system.tol2bus.respLayer0.occupancy         399046064                       # Layer occupancy (ticks)
system.tol2bus.respLayer0.utilization             0.1                       # Layer utilization (%)
system.tol2bus.respLayer1.occupancy       12872957987                       # Layer occupancy (ticks)
system.tol2bus.respLayer1.utilization             2.1                       # Layer utilization (%)
system.voltage_domain.voltage                       1                       # Voltage in Volts

---------- End Simulation Statistics   ----------
