warn: Base 10 memory/cache size 16384MB will be cast to base 2 size 16384MiB.
warn: Base 10 memory/cache size 8MB will be cast to base 2 size 8MiB.
warn: Base 10 memory/cache size 32kB will be cast to base 2 size 32KiB.
warn: Base 10 memory/cache size 32kB will be cast to base 2 size 32KiB.
warn: Base 10 memory/cache size 8MB will be cast to base 2 size 8MiB.
Global frequency set at 1000000000000 ticks per second
src/base/statistics.hh:279: warn: One of the stats is a legacy stat. Legacy stat is a stat that does not belong to any statistics::Group. Legacy stat is deprecated.
src/base/remote_gdb.cc:418: warn: Sockets disabled, not accepting gdb connections
src/sim/process.cc:396: warn: Checkpoints for pipes, device drivers and sockets do not work.
gem5 Simulator System.  https://www.gem5.org
gem5 is copyrighted software; use the --copyright option for details.

gem5 version 24.1.0.2
gem5 compiled Apr 11 2025 20:05:30
gem5 started Apr 19 2025 17:50:26
gem5 executing on kabini, pid 1988588
command line: /home/maintainer/cs773_CompArch-Perf-Security/Final_Project/Workspace/gem5-mirage-v24.0/build/ARM/gem5.opt --outdir=mirage_base_250419-17_50_25560 /home/maintainer/cs773_CompArch-Perf-Security/Final_Project/Workspace/gem5-mirage-v24.0/configs/se.py --cmd ../../exe/lbm_s_base.spec-64 --option '2000 reference.dat 0 0 200_200_260_ldc.of' -i '' --checkpoint-dir=/home/maintainer/cs773_CompArch-Perf-Security/Final_Project/Workspace/SPEC17_workloads/checkpoints/lbm --checkpoint-restore=10000000000 --at-instruction --num-cpus=1 --mem-size=16384MB --mem-type=DDR4_2400_8x8 --cpu-type DerivO3CPU --caches --l2cache --l1d_size=32kB --l1i_size=32kB --l2_size=8MB --l1d_assoc=8 --l1i_assoc=8 --l2_assoc=16 --warmup-insts=10000000000 --maxinsts=10000000000 --mirage_mode=Baseline --prog-interval=100Hz

info: Standard input is not a terminal, disabling listeners.
Switch at curTick count:10000
src/sim/simulate.cc:199: info: Entering event queue @ 5552222092000.  Starting simulation...
src/sim/power_state.cc:105: warn: PowerState: Already in the requested power state, request ignored
src/arch/arm/isa.hh:214: warn: User mode does not have SPSR
src/arch/arm/isa.hh:214: warn: User mode does not have SPSR
Switched CPUS @ tick 5552222102000
switching cpus
**** REAL SIMULATION ****
src/sim/simulate.cc:199: info: Entering event queue @ 5552222102000.  Starting simulation...
5562222092000: Event_144: system.switch_cpus progress event, total committed:5214435, progress insts committed: 5214435, IPC: 0.260722
5572222092000: Event_144: system.switch_cpus progress event, total committed:9905953, progress insts committed: 4691518, IPC: 0.234576
5582222092000: Event_144: system.switch_cpus progress event, total committed:14657161, progress insts committed: 4751208, IPC: 00.23756
5592222092000: Event_144: system.switch_cpus progress event, total committed:19458653, progress insts committed: 4801492, IPC: 0.240075
5602222092000: Event_144: system.switch_cpus progress event, total committed:24369837, progress insts committed: 4911184, IPC: 0.245559
5612222092000: Event_144: system.switch_cpus progress event, total committed:28946570, progress insts committed: 4576733, IPC: 0.228837
5622222092000: Event_144: system.switch_cpus progress event, total committed:33749929, progress insts committed: 4803359, IPC: 0.240168
5632222092000: Event_144: system.switch_cpus progress event, total committed:38553765, progress insts committed: 4803836, IPC: 0.240192
5642222092000: Event_144: system.switch_cpus progress event, total committed:43211477, progress insts committed: 4657712, IPC: 0.232886
5652222092000: Event_144: system.switch_cpus progress event, total committed:47906763, progress insts committed: 4695286, IPC: 0.234764
5662222092000: Event_144: system.switch_cpus progress event, total committed:52629377, progress insts committed: 4722614, IPC: 0.236131
5672222092000: Event_144: system.switch_cpus progress event, total committed:57191290, progress insts committed: 4561913, IPC: 0.228096
5682222092000: Event_144: system.switch_cpus progress event, total committed:61816962, progress insts committed: 4625672, IPC: 0.231284
5692222092000: Event_144: system.switch_cpus progress event, total committed:66480496, progress insts committed: 4663534, IPC: 0.233177
5702222092000: Event_144: system.switch_cpus progress event, total committed:70956551, progress insts committed: 4476055, IPC: 0.223803
5712222092000: Event_144: system.switch_cpus progress event, total committed:75612756, progress insts committed: 4656205, IPC: 00.23281
5722222092000: Event_144: system.switch_cpus progress event, total committed:80263039, progress insts committed: 4650283, IPC: 0.232514
5732222092000: Event_144: system.switch_cpus progress event, total committed:84742218, progress insts committed: 4479179, IPC: 0.223959
5742222092000: Event_144: system.switch_cpus progress event, total committed:89384200, progress insts committed: 4641982, IPC: 0.232099
5752222092000: Event_144: system.switch_cpus progress event, total committed:94098467, progress insts committed: 4714267, IPC: 0.235713
5762222092000: Event_144: system.switch_cpus progress event, total committed:98724209, progress insts committed: 4625742, IPC: 0.231287
5772222092000: Event_144: system.switch_cpus progress event, total committed:103268158, progress insts committed: 4543949, IPC: 0.227197
5782222092000: Event_144: system.switch_cpus progress event, total committed:107918494, progress insts committed: 4650336, IPC: 0.232517
5792222092000: Event_144: system.switch_cpus progress event, total committed:112600624, progress insts committed: 4682130, IPC: 0.234106
5802222092000: Event_144: system.switch_cpus progress event, total committed:117142907, progress insts committed: 4542283, IPC: 0.227114
5812222092000: Event_144: system.switch_cpus progress event, total committed:121801311, progress insts committed: 4658404, IPC: 00.23292
5822222092000: Event_144: system.switch_cpus progress event, total committed:126561586, progress insts committed: 4760275, IPC: 0.238014
5832222092000: Event_144: system.switch_cpus progress event, total committed:131154407, progress insts committed: 4592821, IPC: 0.229641
5842222092000: Event_144: system.switch_cpus progress event, total committed:135971540, progress insts committed: 4817133, IPC: 0.240857
5852222092000: Event_144: system.switch_cpus progress event, total committed:140742040, progress insts committed: 4770500, IPC: 0.238525
5862222092000: Event_144: system.switch_cpus progress event, total committed:145620961, progress insts committed: 4878921, IPC: 0.243946
5872222092000: Event_144: system.switch_cpus progress event, total committed:150479341, progress insts committed: 4858380, IPC: 0.242919
5882222092000: Event_144: system.switch_cpus progress event, total committed:155280946, progress insts committed: 4801605, IPC: 00.24008
5892222092000: Event_144: system.switch_cpus progress event, total committed:160229307, progress insts committed: 4948361, IPC: 0.247418
5902222092000: Event_144: system.switch_cpus progress event, total committed:165110907, progress insts committed: 4881600, IPC: 00.24408
5912222092000: Event_144: system.switch_cpus progress event, total committed:169963622, progress insts committed: 4852715, IPC: 0.242636
5922222092000: Event_144: system.switch_cpus progress event, total committed:175074668, progress insts committed: 5111046, IPC: 0.255552
5932222092000: Event_144: system.switch_cpus progress event, total committed:179745676, progress insts committed: 4671008, IPC: 00.23355
5942222092000: Event_144: system.switch_cpus progress event, total committed:184575950, progress insts committed: 4830274, IPC: 0.241514
5952222092000: Event_144: system.switch_cpus progress event, total committed:189563208, progress insts committed: 4987258, IPC: 0.249363
5962222092000: Event_144: system.switch_cpus progress event, total committed:194139425, progress insts committed: 4576217, IPC: 0.228811
5972222092000: Event_144: system.switch_cpus progress event, total committed:198939151, progress insts committed: 4799726, IPC: 0.239986
5982222092000: Event_144: system.switch_cpus progress event, total committed:203752099, progress insts committed: 4812948, IPC: 0.240647
5992222092000: Event_144: system.switch_cpus progress event, total committed:208319504, progress insts committed: 4567405, IPC: 00.22837
6002222092000: Event_144: system.switch_cpus progress event, total committed:213103143, progress insts committed: 4783639, IPC: 0.239182
6012222092000: Event_144: system.switch_cpus progress event, total committed:217847005, progress insts committed: 4743862, IPC: 0.237193
6022222092000: Event_144: system.switch_cpus progress event, total committed:222482267, progress insts committed: 4635262, IPC: 0.231763
6032222092000: Event_144: system.switch_cpus progress event, total committed:227184465, progress insts committed: 4702198, IPC: 00.23511
6042222092000: Event_144: system.switch_cpus progress event, total committed:231898381, progress insts committed: 4713916, IPC: 0.235696
6052222092000: Event_144: system.switch_cpus progress event, total committed:236530657, progress insts committed: 4632276, IPC: 0.231614
6062222092000: Event_144: system.switch_cpus progress event, total committed:241186523, progress insts committed: 4655866, IPC: 0.232793
6072222092000: Event_144: system.switch_cpus progress event, total committed:245744122, progress insts committed: 4557599, IPC: 00.22788
6082222092000: Event_144: system.switch_cpus progress event, total committed:250513454, progress insts committed: 4769332, IPC: 0.238467
6092222092000: Event_144: system.switch_cpus progress event, total committed:255107666, progress insts committed: 4594212, IPC: 0.229711
6102222092000: Event_144: system.switch_cpus progress event, total committed:259687664, progress insts committed: 4579998, IPC: 0000.229
6112222092000: Event_144: system.switch_cpus progress event, total committed:264423260, progress insts committed: 4735596, IPC: 00.23678
6122222092000: Event_144: system.switch_cpus progress event, total committed:268981757, progress insts committed: 4558497, IPC: 0.227925
6132222092000: Event_144: system.switch_cpus progress event, total committed:273653253, progress insts committed: 4671496, IPC: 0.233575
6142222092000: Event_144: system.switch_cpus progress event, total committed:278403578, progress insts committed: 4750325, IPC: 0.237516
6152222092000: Event_144: system.switch_cpus progress event, total committed:282944238, progress insts committed: 4540660, IPC: 0.227033
6162222092000: Event_144: system.switch_cpus progress event, total committed:287684533, progress insts committed: 4740295, IPC: 0.237015
6172222092000: Event_144: system.switch_cpus progress event, total committed:292587690, progress insts committed: 4903157, IPC: 0.245158
6182222092000: Event_144: system.switch_cpus progress event, total committed:297295169, progress insts committed: 4707479, IPC: 0.235374
6192222092000: Event_144: system.switch_cpus progress event, total committed:302225394, progress insts committed: 4930225, IPC: 0.246511
6202222092000: Event_144: system.switch_cpus progress event, total committed:307191014, progress insts committed: 4965620, IPC: 0.248281
6212222092000: Event_144: system.switch_cpus progress event, total committed:311971490, progress insts committed: 4780476, IPC: 0.239024
6222222092000: Event_144: system.switch_cpus progress event, total committed:316962697, progress insts committed: 4991207, IPC: 00.24956
6232222092000: Event_144: system.switch_cpus progress event, total committed:321850440, progress insts committed: 4887743, IPC: 0.244387
6242222092000: Event_144: system.switch_cpus progress event, total committed:326717242, progress insts committed: 4866802, IPC: 00.24334
6252222092000: Event_144: system.switch_cpus progress event, total committed:331655920, progress insts committed: 4938678, IPC: 0.246934
6262222092000: Event_144: system.switch_cpus progress event, total committed:336549193, progress insts committed: 4893273, IPC: 0.244664
6272222092000: Event_144: system.switch_cpus progress event, total committed:341536485, progress insts committed: 4987292, IPC: 0.249365
6282222092000: Event_144: system.switch_cpus progress event, total committed:346399696, progress insts committed: 4863211, IPC: 0.243161
6292222092000: Event_144: system.switch_cpus progress event, total committed:351188581, progress insts committed: 4788885, IPC: 0.239444
6302222092000: Event_144: system.switch_cpus progress event, total committed:356107282, progress insts committed: 4918701, IPC: 0.245935
6312222092000: Event_144: system.switch_cpus progress event, total committed:360799290, progress insts committed: 4692008, IPC: 000.2346
6322222092000: Event_144: system.switch_cpus progress event, total committed:365652631, progress insts committed: 4853341, IPC: 0.242667
6332222092000: Event_144: system.switch_cpus progress event, total committed:370485706, progress insts committed: 4833075, IPC: 0.241654
6342222092000: Event_144: system.switch_cpus progress event, total committed:375144304, progress insts committed: 4658598, IPC: 00.23293
6352222092000: Event_144: system.switch_cpus progress event, total committed:379935686, progress insts committed: 4791382, IPC: 0.239569
6362222092000: Event_144: system.switch_cpus progress event, total committed:384662537, progress insts committed: 4726851, IPC: 0.236343
6372222092000: Event_144: system.switch_cpus progress event, total committed:389215535, progress insts committed: 4552998, IPC: 00.22765
6382222092000: Event_144: system.switch_cpus progress event, total committed:393946490, progress insts committed: 4730955, IPC: 0.236548
6392222092000: Event_144: system.switch_cpus progress event, total committed:398686739, progress insts committed: 4740249, IPC: 0.237012
6402222092000: Event_144: system.switch_cpus progress event, total committed:403314527, progress insts committed: 4627788, IPC: 0.231389
6412222092000: Event_144: system.switch_cpus progress event, total committed:407951240, progress insts committed: 4636713, IPC: 0.231836
6422222092000: Event_144: system.switch_cpus progress event, total committed:412750584, progress insts committed: 4799344, IPC: 0.239967
6432222092000: Event_144: system.switch_cpus progress event, total committed:417567315, progress insts committed: 4816731, IPC: 0.240837
6442222092000: Event_144: system.switch_cpus progress event, total committed:422255165, progress insts committed: 4687850, IPC: 0.234393
6452222092000: Event_144: system.switch_cpus progress event, total committed:427113929, progress insts committed: 4858764, IPC: 0.242938
6462222092000: Event_144: system.switch_cpus progress event, total committed:431955586, progress insts committed: 4841657, IPC: 0.242083
6472222092000: Event_144: system.switch_cpus progress event, total committed:436694861, progress insts committed: 4739275, IPC: 0.236964
6482222092000: Event_144: system.switch_cpus progress event, total committed:441536004, progress insts committed: 4841143, IPC: 0.242057
6492222092000: Event_144: system.switch_cpus progress event, total committed:446371285, progress insts committed: 4835281, IPC: 0.241764
6502222092000: Event_144: system.switch_cpus progress event, total committed:451108591, progress insts committed: 4737306, IPC: 0.236865
6512222092000: Event_144: system.switch_cpus progress event, total committed:455840592, progress insts committed: 4732001, IPC: 000.2366
6522222092000: Event_144: system.switch_cpus progress event, total committed:460592581, progress insts committed: 4751989, IPC: 0.237599
6532222092000: Event_144: system.switch_cpus progress event, total committed:465279853, progress insts committed: 4687272, IPC: 0.234364
6542222092000: Event_144: system.switch_cpus progress event, total committed:470020383, progress insts committed: 4740530, IPC: 0.237027
6552222092000: Event_144: system.switch_cpus progress event, total committed:474749382, progress insts committed: 4728999, IPC: 00.23645
6562222092000: Event_144: system.switch_cpus progress event, total committed:479400099, progress insts committed: 4650717, IPC: 0.232536
6572222092000: Event_144: system.switch_cpus progress event, total committed:484160549, progress insts committed: 4760450, IPC: 0.238022
6582222092000: Event_144: system.switch_cpus progress event, total committed:488994181, progress insts committed: 4833632, IPC: 0.241682
6592222092000: Event_144: system.switch_cpus progress event, total committed:493788446, progress insts committed: 4794265, IPC: 0.239713
6602222092000: Event_144: system.switch_cpus progress event, total committed:498460441, progress insts committed: 4671995, IPC: 000.2336
6612222092000: Event_144: system.switch_cpus progress event, total committed:503369685, progress insts committed: 4909244, IPC: 0.245462
6622222092000: Event_144: system.switch_cpus progress event, total committed:508074189, progress insts committed: 4704504, IPC: 0.235225
6632222092000: Event_144: system.switch_cpus progress event, total committed:512718325, progress insts committed: 4644136, IPC: 0.232207
6642222092000: Event_144: system.switch_cpus progress event, total committed:517637127, progress insts committed: 4918802, IPC: 00.24594
6652222092000: Event_144: system.switch_cpus progress event, total committed:522319357, progress insts committed: 4682230, IPC: 0.234112
6662222092000: Event_144: system.switch_cpus progress event, total committed:527000827, progress insts committed: 4681470, IPC: 0.234073
6672222092000: Event_144: system.switch_cpus progress event, total committed:531823180, progress insts committed: 4822353, IPC: 0.241118
6682222092000: Event_144: system.switch_cpus progress event, total committed:536576602, progress insts committed: 4753422, IPC: 0.237671
6692222092000: Event_144: system.switch_cpus progress event, total committed:541209863, progress insts committed: 4633261, IPC: 0.231663
6702222092000: Event_144: system.switch_cpus progress event, total committed:545869789, progress insts committed: 4659926, IPC: 0.232996
6712222092000: Event_144: system.switch_cpus progress event, total committed:550600713, progress insts committed: 4730924, IPC: 0.236546
6722222092000: Event_144: system.switch_cpus progress event, total committed:555209893, progress insts committed: 4609180, IPC: 0.230459
6732222092000: Event_144: system.switch_cpus progress event, total committed:559984339, progress insts committed: 4774446, IPC: 0.238722
6742222092000: Event_144: system.switch_cpus progress event, total committed:564528411, progress insts committed: 4544072, IPC: 0.227204
6752222092000: Event_144: system.switch_cpus progress event, total committed:569398816, progress insts committed: 4870405, IPC: 00.24352
6762222092000: Event_144: system.switch_cpus progress event, total committed:573968330, progress insts committed: 4569514, IPC: 0.228476
6772222092000: Event_144: system.switch_cpus progress event, total committed:578695375, progress insts committed: 4727045, IPC: 0.236352
6782222092000: Event_144: system.switch_cpus progress event, total committed:583398499, progress insts committed: 4703124, IPC: 0.235156
6792222092000: Event_144: system.switch_cpus progress event, total committed:588017274, progress insts committed: 4618775, IPC: 0.230939
6802222092000: Event_144: system.switch_cpus progress event, total committed:592599074, progress insts committed: 4581800, IPC: 00.22909
6812222092000: Event_144: system.switch_cpus progress event, total committed:597289800, progress insts committed: 4690726, IPC: 0.234536
6822222092000: Event_144: system.switch_cpus progress event, total committed:601856987, progress insts committed: 4567187, IPC: 0.228359
6832222092000: Event_144: system.switch_cpus progress event, total committed:606459235, progress insts committed: 4602248, IPC: 0.230112
6842222092000: Event_144: system.switch_cpus progress event, total committed:611152639, progress insts committed: 4693404, IPC: 00.23467
6852222092000: Event_144: system.switch_cpus progress event, total committed:615799763, progress insts committed: 4647124, IPC: 0.232356
6862222092000: Event_144: system.switch_cpus progress event, total committed:620475759, progress insts committed: 4675996, IPC: 000.2338
6872222092000: Event_144: system.switch_cpus progress event, total committed:625293667, progress insts committed: 4817908, IPC: 0.240895
6882222092000: Event_144: system.switch_cpus progress event, total committed:629998539, progress insts committed: 4704872, IPC: 0.235244
6892222092000: Event_144: system.switch_cpus progress event, total committed:634797066, progress insts committed: 4798527, IPC: 0.239926
6902222092000: Event_144: system.switch_cpus progress event, total committed:639668201, progress insts committed: 4871135, IPC: 0.243557
6912222092000: Event_144: system.switch_cpus progress event, total committed:644483062, progress insts committed: 4814861, IPC: 0.240743
6922222092000: Event_144: system.switch_cpus progress event, total committed:649109099, progress insts committed: 4626037, IPC: 0.231302
6932222092000: Event_144: system.switch_cpus progress event, total committed:653929068, progress insts committed: 4819969, IPC: 0.240998
6942222092000: Event_144: system.switch_cpus progress event, total committed:658723741, progress insts committed: 4794673, IPC: 0.239734
6952222092000: Event_144: system.switch_cpus progress event, total committed:663341069, progress insts committed: 4617328, IPC: 0.230866
6962222092000: Event_144: system.switch_cpus progress event, total committed:668119514, progress insts committed: 4778445, IPC: 0.238922
6972222092000: Event_144: system.switch_cpus progress event, total committed:672904085, progress insts committed: 4784571, IPC: 0.239229
6982222092000: Event_144: system.switch_cpus progress event, total committed:677540169, progress insts committed: 4636084, IPC: 0.231804
6992222092000: Event_144: system.switch_cpus progress event, total committed:682323420, progress insts committed: 4783251, IPC: 0.239163
7002222092000: Event_144: system.switch_cpus progress event, total committed:687144301, progress insts committed: 4820881, IPC: 0.241044
7012222092000: Event_144: system.switch_cpus progress event, total committed:691840372, progress insts committed: 4696071, IPC: 0.234804
7022222092000: Event_144: system.switch_cpus progress event, total committed:696616415, progress insts committed: 4776043, IPC: 0.238802
7032222092000: Event_144: system.switch_cpus progress event, total committed:701516517, progress insts committed: 4900102, IPC: 0.245005
7042222092000: Event_144: system.switch_cpus progress event, total committed:706307179, progress insts committed: 4790662, IPC: 0.239533
7052222092000: Event_144: system.switch_cpus progress event, total committed:711235544, progress insts committed: 4928365, IPC: 0.246418
7062222092000: Event_144: system.switch_cpus progress event, total committed:716090749, progress insts committed: 4855205, IPC: 00.24276
7072222092000: Event_144: system.switch_cpus progress event, total committed:720931587, progress insts committed: 4840838, IPC: 0.242042
7082222092000: Event_144: system.switch_cpus progress event, total committed:725753647, progress insts committed: 4822060, IPC: 0.241103
7092222092000: Event_144: system.switch_cpus progress event, total committed:730545482, progress insts committed: 4791835, IPC: 0.239592
7102222092000: Event_144: system.switch_cpus progress event, total committed:735510560, progress insts committed: 4965078, IPC: 0.248254
7112222092000: Event_144: system.switch_cpus progress event, total committed:740243233, progress insts committed: 4732673, IPC: 0.236634
7122222092000: Event_144: system.switch_cpus progress event, total committed:745135249, progress insts committed: 4892016, IPC: 0.244601
7132222092000: Event_144: system.switch_cpus progress event, total committed:750068997, progress insts committed: 4933748, IPC: 0.246687
7142222092000: Event_144: system.switch_cpus progress event, total committed:754799246, progress insts committed: 4730249, IPC: 0.236512
7152222092000: Event_144: system.switch_cpus progress event, total committed:759689893, progress insts committed: 4890647, IPC: 0.244532
7162222092000: Event_144: system.switch_cpus progress event, total committed:764489650, progress insts committed: 4799757, IPC: 0.239988
7172222092000: Event_144: system.switch_cpus progress event, total committed:769096871, progress insts committed: 4607221, IPC: 0.230361
7182222092000: Event_144: system.switch_cpus progress event, total committed:773950627, progress insts committed: 4853756, IPC: 0.242688
7192222092000: Event_144: system.switch_cpus progress event, total committed:778812319, progress insts committed: 4861692, IPC: 0.243085
7202222092000: Event_144: system.switch_cpus progress event, total committed:783401828, progress insts committed: 4589509, IPC: 0.229475
7212222092000: Event_144: system.switch_cpus progress event, total committed:788239883, progress insts committed: 4838055, IPC: 0.241903
7222222092000: Event_144: system.switch_cpus progress event, total committed:793167542, progress insts committed: 4927659, IPC: 0.246383
7232222092000: Event_144: system.switch_cpus progress event, total committed:798128398, progress insts committed: 4960856, IPC: 0.248043
7242222092000: Event_144: system.switch_cpus progress event, total committed:803024983, progress insts committed: 4896585, IPC: 0.244829
7252222092000: Event_144: system.switch_cpus progress event, total committed:808278039, progress insts committed: 5253056, IPC: 0.262653
7262222092000: Event_144: system.switch_cpus progress event, total committed:813516117, progress insts committed: 5238078, IPC: 0.261904
7272222092000: Event_144: system.switch_cpus progress event, total committed:818812902, progress insts committed: 5296785, IPC: 0.264839
7282222092000: Event_144: system.switch_cpus progress event, total committed:824390532, progress insts committed: 5577630, IPC: 0.278882
7292222092000: Event_144: system.switch_cpus progress event, total committed:830021610, progress insts committed: 5631078, IPC: 0.281554
7302222092000: Event_144: system.switch_cpus progress event, total committed:835951543, progress insts committed: 5929933, IPC: 0.296497
7312222092000: Event_144: system.switch_cpus progress event, total committed:842026424, progress insts committed: 6074881, IPC: 0.303744
7322222092000: Event_144: system.switch_cpus progress event, total committed:848284104, progress insts committed: 6257680, IPC: 0.312884
7332222092000: Event_144: system.switch_cpus progress event, total committed:854972247, progress insts committed: 6688143, IPC: 0.334407
7342222092000: Event_144: system.switch_cpus progress event, total committed:861624774, progress insts committed: 6652527, IPC: 0.332626
7352222092000: Event_144: system.switch_cpus progress event, total committed:868595673, progress insts committed: 6970899, IPC: 0.348545
7362222092000: Event_144: system.switch_cpus progress event, total committed:875890301, progress insts committed: 7294628, IPC: 0.364731
7372222092000: Event_144: system.switch_cpus progress event, total committed:883240916, progress insts committed: 7350615, IPC: 0.367531
7382222092000: Event_144: system.switch_cpus progress event, total committed:890835909, progress insts committed: 7594993, IPC: 00.37975
7392222092000: Event_144: system.switch_cpus progress event, total committed:898709716, progress insts committed: 7873807, IPC: 00.39369
7402222092000: Event_144: system.switch_cpus progress event, total committed:906851099, progress insts committed: 8141383, IPC: 0.407069
7412222092000: Event_144: system.switch_cpus progress event, total committed:915024741, progress insts committed: 8173642, IPC: 0.408682
7422222092000: Event_144: system.switch_cpus progress event, total committed:923423008, progress insts committed: 8398267, IPC: 0.419913
7432222092000: Event_144: system.switch_cpus progress event, total committed:932162991, progress insts committed: 8739983, IPC: 0.436999
7442222092000: Event_144: system.switch_cpus progress event, total committed:940756151, progress insts committed: 8593160, IPC: 0.429658
7452222092000: Event_144: system.switch_cpus progress event, total committed:949570227, progress insts committed: 8814076, IPC: 0.440704
7462222092000: Event_144: system.switch_cpus progress event, total committed:958599500, progress insts committed: 9029273, IPC: 0.451464
7472222092000: Event_144: system.switch_cpus progress event, total committed:967563303, progress insts committed: 8963803, IPC: 00.44819
7482222092000: Event_144: system.switch_cpus progress event, total committed:976584654, progress insts committed: 9021351, IPC: 0.451068
7492222092000: Event_144: system.switch_cpus progress event, total committed:985700521, progress insts committed: 9115867, IPC: 0.455793
7502222092000: Event_144: system.switch_cpus progress event, total committed:994903630, progress insts committed: 9203109, IPC: 0.460155
7512222092000: Event_144: system.switch_cpus progress event, total committed:1004045128, progress insts committed: 9141498, IPC: 0.457075
7522222092000: Event_144: system.switch_cpus progress event, total committed:1013267401, progress insts committed: 9222273, IPC: 0.461114
7532222092000: Event_144: system.switch_cpus progress event, total committed:1022580190, progress insts committed: 9312789, IPC: 0.465639
7542222092000: Event_144: system.switch_cpus progress event, total committed:1031839215, progress insts committed: 9259025, IPC: 0.462951
7552222092000: Event_144: system.switch_cpus progress event, total committed:1041098289, progress insts committed: 9259074, IPC: 0.462954
7562222092000: Event_144: system.switch_cpus progress event, total committed:1050495894, progress insts committed: 9397605, IPC: 00.46988
7572222092000: Event_144: system.switch_cpus progress event, total committed:1059802076, progress insts committed: 9306182, IPC: 0.465309
7582222092000: Event_144: system.switch_cpus progress event, total committed:1069114069, progress insts committed: 9311993, IPC: 000.4656
7592222092000: Event_144: system.switch_cpus progress event, total committed:1078536261, progress insts committed: 9422192, IPC: 00.47111
7602222092000: Event_144: system.switch_cpus progress event, total committed:1087841273, progress insts committed: 9305012, IPC: 0.465251
7612222092000: Event_144: system.switch_cpus progress event, total committed:1097266422, progress insts committed: 9425149, IPC: 0.471257
7622222092000: Event_144: system.switch_cpus progress event, total committed:1106574570, progress insts committed: 9308148, IPC: 0.465407
7632222092000: Event_144: system.switch_cpus progress event, total committed:1115885350, progress insts committed: 9310780, IPC: 0.465539
7642222092000: Event_144: system.switch_cpus progress event, total committed:1125307573, progress insts committed: 9422223, IPC: 0.471111
7652222092000: Event_144: system.switch_cpus progress event, total committed:1134617391, progress insts committed: 9309818, IPC: 0.465491
7662222092000: Event_144: system.switch_cpus progress event, total committed:1143930613, progress insts committed: 9313222, IPC: 0.465661
7672222092000: Event_144: system.switch_cpus progress event, total committed:1153356061, progress insts committed: 9425448, IPC: 0.471272
7682222092000: Event_144: system.switch_cpus progress event, total committed:1162667053, progress insts committed: 9310992, IPC: 00.46555
7692222092000: Event_144: system.switch_cpus progress event, total committed:1171779391, progress insts committed: 9112338, IPC: 0.455617
7702222092000: Event_144: system.switch_cpus progress event, total committed:1179990906, progress insts committed: 8211515, IPC: 0.410576
7712222092000: Event_144: system.switch_cpus progress event, total committed:1183743611, progress insts committed: 3752705, IPC: 0.187635
7722222092000: Event_144: system.switch_cpus progress event, total committed:1185111554, progress insts committed: 1367943, IPC: 0.0683972
7732222092000: Event_144: system.switch_cpus progress event, total committed:1186491951, progress insts committed: 1380397, IPC: 0.0690198
7742222092000: Event_144: system.switch_cpus progress event, total committed:1193672076, progress insts committed: 7180125, IPC: 0.359006
7752222092000: Event_144: system.switch_cpus progress event, total committed:1202155275, progress insts committed: 8483199, IPC: 00.42416
7762222092000: Event_144: system.switch_cpus progress event, total committed:1211655943, progress insts committed: 9500668, IPC: 0.475033
7772222092000: Event_144: system.switch_cpus progress event, total committed:1221038488, progress insts committed: 9382545, IPC: 0.469127
7782222092000: Event_144: system.switch_cpus progress event, total committed:1230419459, progress insts committed: 9380971, IPC: 0.469049
7792222092000: Event_144: system.switch_cpus progress event, total committed:1239915679, progress insts committed: 9496220, IPC: 0.474811
7802222092000: Event_144: system.switch_cpus progress event, total committed:1249297807, progress insts committed: 9382128, IPC: 0.469106
7812222092000: Event_144: system.switch_cpus progress event, total committed:1258682028, progress insts committed: 9384221, IPC: 0.469211
7822222092000: Event_144: system.switch_cpus progress event, total committed:1268175049, progress insts committed: 9493021, IPC: 0.474651
7832222092000: Event_144: system.switch_cpus progress event, total committed:1277561859, progress insts committed: 9386810, IPC: 00.46934
7842222092000: Event_144: system.switch_cpus progress event, total committed:1286944727, progress insts committed: 9382868, IPC: 0.469143
7852222092000: Event_144: system.switch_cpus progress event, total committed:1296442354, progress insts committed: 9497627, IPC: 0.474881
7862222092000: Event_144: system.switch_cpus progress event, total committed:1305831995, progress insts committed: 9389641, IPC: 0.469482
7872222092000: Event_144: system.switch_cpus progress event, total committed:1315331724, progress insts committed: 9499729, IPC: 0.474986
7882222092000: Event_144: system.switch_cpus progress event, total committed:1323936209, progress insts committed: 8604485, IPC: 0.430224
7892222092000: Event_144: system.switch_cpus progress event, total committed:1331932213, progress insts committed: 7996004, IPC: 000.3998
7902222092000: Event_144: system.switch_cpus progress event, total committed:1339280414, progress insts committed: 7348201, IPC: 00.36741
7912222092000: Event_144: system.switch_cpus progress event, total committed:1345388651, progress insts committed: 6108237, IPC: 0.305412
7922222092000: Event_144: system.switch_cpus progress event, total committed:1351210185, progress insts committed: 5821534, IPC: 0.291077
7932222092000: Event_144: system.switch_cpus progress event, total committed:1356621920, progress insts committed: 5411735, IPC: 0.270587
7942222092000: Event_144: system.switch_cpus progress event, total committed:1360815364, progress insts committed: 4193444, IPC: 0.209672
7952222092000: Event_144: system.switch_cpus progress event, total committed:1365104396, progress insts committed: 4289032, IPC: 0.214452
7962222092000: Event_144: system.switch_cpus progress event, total committed:1369246584, progress insts committed: 4142188, IPC: 0.207109
7972222092000: Event_144: system.switch_cpus progress event, total committed:1372757055, progress insts committed: 3510471, IPC: 0.175524
7982222092000: Event_144: system.switch_cpus progress event, total committed:1376531379, progress insts committed: 3774324, IPC: 0.188716
7992222092000: Event_144: system.switch_cpus progress event, total committed:1380357970, progress insts committed: 3826591, IPC: 00.19133
8002222092000: Event_144: system.switch_cpus progress event, total committed:1383885314, progress insts committed: 3527344, IPC: 0.176367
8012222092000: Event_144: system.switch_cpus progress event, total committed:1388031181, progress insts committed: 4145867, IPC: 0.207293
8022222092000: Event_144: system.switch_cpus progress event, total committed:1391941488, progress insts committed: 3910307, IPC: 0.195515
8032222092000: Event_144: system.switch_cpus progress event, total committed:1396064172, progress insts committed: 4122684, IPC: 0.206134
8042222092000: Event_144: system.switch_cpus progress event, total committed:1400452593, progress insts committed: 4388421, IPC: 0.219421
8052222092000: Event_144: system.switch_cpus progress event, total committed:1404946810, progress insts committed: 4494217, IPC: 0.224711
8062222092000: Event_144: system.switch_cpus progress event, total committed:1409514253, progress insts committed: 4567443, IPC: 0.228372
8072222092000: Event_144: system.switch_cpus progress event, total committed:1414087998, progress insts committed: 4573745, IPC: 0.228687
8082222092000: Event_144: system.switch_cpus progress event, total committed:1418950091, progress insts committed: 4862093, IPC: 0.243105
8092222092000: Event_144: system.switch_cpus progress event, total committed:1423755738, progress insts committed: 4805647, IPC: 0.240282
8102222092000: Event_144: system.switch_cpus progress event, total committed:1428555061, progress insts committed: 4799323, IPC: 0.239966
8112222092000: Event_144: system.switch_cpus progress event, total committed:1433465099, progress insts committed: 4910038, IPC: 0.245502
8122222092000: Event_144: system.switch_cpus progress event, total committed:1438354180, progress insts committed: 4889081, IPC: 0.244454
8132222092000: Event_144: system.switch_cpus progress event, total committed:1443236319, progress insts committed: 4882139, IPC: 0.244107
8142222092000: Event_144: system.switch_cpus progress event, total committed:1448234027, progress insts committed: 4997708, IPC: 0.249885
8152222092000: Event_144: system.switch_cpus progress event, total committed:1453276229, progress insts committed: 5042202, IPC: 00.25211
8162222092000: Event_144: system.switch_cpus progress event, total committed:1458204829, progress insts committed: 4928600, IPC: 00.24643
8172222092000: Event_144: system.switch_cpus progress event, total committed:1463117646, progress insts committed: 4912817, IPC: 0.245641
8182222092000: Event_144: system.switch_cpus progress event, total committed:1468095193, progress insts committed: 4977547, IPC: 0.248877
8192222092000: Event_144: system.switch_cpus progress event, total committed:1473044233, progress insts committed: 4949040, IPC: 0.247452
8202222092000: Event_144: system.switch_cpus progress event, total committed:1477727902, progress insts committed: 4683669, IPC: 0.234183
8212222092000: Event_144: system.switch_cpus progress event, total committed:1482468387, progress insts committed: 4740485, IPC: 0.237024
8222222092000: Event_144: system.switch_cpus progress event, total committed:1487126568, progress insts committed: 4658181, IPC: 0.232909
8232222092000: Event_144: system.switch_cpus progress event, total committed:1491765567, progress insts committed: 4638999, IPC: 00.23195
8242222092000: Event_144: system.switch_cpus progress event, total committed:1496532227, progress insts committed: 4766660, IPC: 0.238333
8252222092000: Event_144: system.switch_cpus progress event, total committed:1501284419, progress insts committed: 4752192, IPC: 00.23761
8262222092000: Event_144: system.switch_cpus progress event, total committed:1505943142, progress insts committed: 4658723, IPC: 0.232936
8272222092000: Event_144: system.switch_cpus progress event, total committed:1510786708, progress insts committed: 4843566, IPC: 0.242178
8282222092000: Event_144: system.switch_cpus progress event, total committed:1515593398, progress insts committed: 4806690, IPC: 0.240335
8292222092000: Event_144: system.switch_cpus progress event, total committed:1520259106, progress insts committed: 4665708, IPC: 0.233285
8302222092000: Event_144: system.switch_cpus progress event, total committed:1525141483, progress insts committed: 4882377, IPC: 0.244119
8312222092000: Event_144: system.switch_cpus progress event, total committed:1529929762, progress insts committed: 4788279, IPC: 0.239414
8322222092000: Event_144: system.switch_cpus progress event, total committed:1534806647, progress insts committed: 4876885, IPC: 0.243844
8332222092000: Event_144: system.switch_cpus progress event, total committed:1539565241, progress insts committed: 4758594, IPC: 00.23793
8342222092000: Event_144: system.switch_cpus progress event, total committed:1544363975, progress insts committed: 4798734, IPC: 0.239937
8352222092000: Event_144: system.switch_cpus progress event, total committed:1549271417, progress insts committed: 4907442, IPC: 0.245372
8362222092000: Event_144: system.switch_cpus progress event, total committed:1554044643, progress insts committed: 4773226, IPC: 0.238661
8372222092000: Event_144: system.switch_cpus progress event, total committed:1558851635, progress insts committed: 4806992, IPC: 00.24035
8382222092000: Event_144: system.switch_cpus progress event, total committed:1563656243, progress insts committed: 4804608, IPC: 00.24023
8392222092000: Event_144: system.switch_cpus progress event, total committed:1568351810, progress insts committed: 4695567, IPC: 0.234778
8402222092000: Event_144: system.switch_cpus progress event, total committed:1573167628, progress insts committed: 4815818, IPC: 0.240791
8412222092000: Event_144: system.switch_cpus progress event, total committed:1577871823, progress insts committed: 4704195, IPC: 00.23521
8422222092000: Event_144: system.switch_cpus progress event, total committed:1582520875, progress insts committed: 4649052, IPC: 0.232453
8432222092000: Event_144: system.switch_cpus progress event, total committed:1587319109, progress insts committed: 4798234, IPC: 0.239912
8442222092000: Event_144: system.switch_cpus progress event, total committed:1592219311, progress insts committed: 4900202, IPC: 00.24501
8452222092000: Event_144: system.switch_cpus progress event, total committed:1597096587, progress insts committed: 4877276, IPC: 0.243864
8462222092000: Event_144: system.switch_cpus progress event, total committed:1601735256, progress insts committed: 4638669, IPC: 0.231933
8472222092000: Event_144: system.switch_cpus progress event, total committed:1606693893, progress insts committed: 4958637, IPC: 0.247932
8482222092000: Event_144: system.switch_cpus progress event, total committed:1611440278, progress insts committed: 4746385, IPC: 0.237319
8492222092000: Event_144: system.switch_cpus progress event, total committed:1616135939, progress insts committed: 4695661, IPC: 0.234783
8502222092000: Event_144: system.switch_cpus progress event, total committed:1621034740, progress insts committed: 4898801, IPC: 00.24494
8512222092000: Event_144: system.switch_cpus progress event, total committed:1625754818, progress insts committed: 4720078, IPC: 0.236004
8522222092000: Event_144: system.switch_cpus progress event, total committed:1630513935, progress insts committed: 4759117, IPC: 0.237956
8532222092000: Event_144: system.switch_cpus progress event, total committed:1635321865, progress insts committed: 4807930, IPC: 0.240397
8542222092000: Event_144: system.switch_cpus progress event, total committed:1640062245, progress insts committed: 4740380, IPC: 0.237019
8552222092000: Event_144: system.switch_cpus progress event, total committed:1644916723, progress insts committed: 4854478, IPC: 0.242724
8562222092000: Event_144: system.switch_cpus progress event, total committed:1649671425, progress insts committed: 4754702, IPC: 0.237735
8572222092000: Event_144: system.switch_cpus progress event, total committed:1654422085, progress insts committed: 4750660, IPC: 0.237533
8582222092000: Event_144: system.switch_cpus progress event, total committed:1659365294, progress insts committed: 4943209, IPC: 00.24716
8592222092000: Event_144: system.switch_cpus progress event, total committed:1663881746, progress insts committed: 4516452, IPC: 0.225823
8602222092000: Event_144: system.switch_cpus progress event, total committed:1668596677, progress insts committed: 4714931, IPC: 0.235747
8612222092000: Event_144: system.switch_cpus progress event, total committed:1673442011, progress insts committed: 4845334, IPC: 0.242267
8622222092000: Event_144: system.switch_cpus progress event, total committed:1678068501, progress insts committed: 4626490, IPC: 0.231324
8632222092000: Event_144: system.switch_cpus progress event, total committed:1682880263, progress insts committed: 4811762, IPC: 0.240588
8642222092000: Event_144: system.switch_cpus progress event, total committed:1687659488, progress insts committed: 4779225, IPC: 0.238961
8652222092000: Event_144: system.switch_cpus progress event, total committed:1692335827, progress insts committed: 4676339, IPC: 0.233817
8662222092000: Event_144: system.switch_cpus progress event, total committed:1697068367, progress insts committed: 4732540, IPC: 0.236627
8672222092000: Event_144: system.switch_cpus progress event, total committed:1701891147, progress insts committed: 4822780, IPC: 0.241139
8682222092000: Event_144: system.switch_cpus progress event, total committed:1706484224, progress insts committed: 4593077, IPC: 0.229654
8692222092000: Event_144: system.switch_cpus progress event, total committed:1711334744, progress insts committed: 4850520, IPC: 0.242526
8702222092000: Event_144: system.switch_cpus progress event, total committed:1716203097, progress insts committed: 4868353, IPC: 0.243418
8712222092000: Event_144: system.switch_cpus progress event, total committed:1720960327, progress insts committed: 4757230, IPC: 0.237862
8722222092000: Event_144: system.switch_cpus progress event, total committed:1725687883, progress insts committed: 4727556, IPC: 0.236378
8732222092000: Event_144: system.switch_cpus progress event, total committed:1730604651, progress insts committed: 4916768, IPC: 0.245838
8742222092000: Event_144: system.switch_cpus progress event, total committed:1735500076, progress insts committed: 4895425, IPC: 0.244771
8752222092000: Event_144: system.switch_cpus progress event, total committed:1740234934, progress insts committed: 4734858, IPC: 0.236743
8762222092000: Event_144: system.switch_cpus progress event, total committed:1745127440, progress insts committed: 4892506, IPC: 0.244625
8772222092000: Event_144: system.switch_cpus progress event, total committed:1749946818, progress insts committed: 4819378, IPC: 0.240969
8782222092000: Event_144: system.switch_cpus progress event, total committed:1754706653, progress insts committed: 4759835, IPC: 0.237992
8792222092000: Event_144: system.switch_cpus progress event, total committed:1759522644, progress insts committed: 4815991, IPC: 000.2408
8802222092000: Event_144: system.switch_cpus progress event, total committed:1764276590, progress insts committed: 4753946, IPC: 0.237697
8812222092000: Event_144: system.switch_cpus progress event, total committed:1768947542, progress insts committed: 4670952, IPC: 0.233548
8822222092000: Event_144: system.switch_cpus progress event, total committed:1773576780, progress insts committed: 4629238, IPC: 0.231462
8832222092000: Event_144: system.switch_cpus progress event, total committed:1778129131, progress insts committed: 4552351, IPC: 0.227618
8842222092000: Event_144: system.switch_cpus progress event, total committed:1782799899, progress insts committed: 4670768, IPC: 0.233538
8852222092000: Event_144: system.switch_cpus progress event, total committed:1787247397, progress insts committed: 4447498, IPC: 0.222375
8862222092000: Event_144: system.switch_cpus progress event, total committed:1791817771, progress insts committed: 4570374, IPC: 0.228519
8872222092000: Event_144: system.switch_cpus progress event, total committed:1796536578, progress insts committed: 4718807, IPC: 00.23594
8882222092000: Event_144: system.switch_cpus progress event, total committed:1801083795, progress insts committed: 4547217, IPC: 0.227361
8892222092000: Event_144: system.switch_cpus progress event, total committed:1805733606, progress insts committed: 4649811, IPC: 0.232491
8902222092000: Event_144: system.switch_cpus progress event, total committed:1810459649, progress insts committed: 4726043, IPC: 0.236302
8912222092000: Event_144: system.switch_cpus progress event, total committed:1815234849, progress insts committed: 4775200, IPC: 00.23876
8922222092000: Event_144: system.switch_cpus progress event, total committed:1820019185, progress insts committed: 4784336, IPC: 0.239217
8932222092000: Event_144: system.switch_cpus progress event, total committed:1824814626, progress insts committed: 4795441, IPC: 0.239772
8942222092000: Event_144: system.switch_cpus progress event, total committed:1829648735, progress insts committed: 4834109, IPC: 0.241705
8952222092000: Event_144: system.switch_cpus progress event, total committed:1834485136, progress insts committed: 4836401, IPC: 00.24182
8962222092000: Event_144: system.switch_cpus progress event, total committed:1839332940, progress insts committed: 4847804, IPC: 00.24239
8972222092000: Event_144: system.switch_cpus progress event, total committed:1844274851, progress insts committed: 4941911, IPC: 0.247096
8982222092000: Event_144: system.switch_cpus progress event, total committed:1849067582, progress insts committed: 4792731, IPC: 0.239637
8992222092000: Event_144: system.switch_cpus progress event, total committed:1854127733, progress insts committed: 5060151, IPC: 0.253008
9002222092000: Event_144: system.switch_cpus progress event, total committed:1859023114, progress insts committed: 4895381, IPC: 0.244769
9012222092000: Event_144: system.switch_cpus progress event, total committed:1863732301, progress insts committed: 4709187, IPC: 0.235459
9022222092000: Event_144: system.switch_cpus progress event, total committed:1868810401, progress insts committed: 5078100, IPC: 0.253905
9032222092000: Event_144: system.switch_cpus progress event, total committed:1873621863, progress insts committed: 4811462, IPC: 0.240573
9042222092000: Event_144: system.switch_cpus progress event, total committed:1878341691, progress insts committed: 4719828, IPC: 0.235991
9052222092000: Event_144: system.switch_cpus progress event, total committed:1883107255, progress insts committed: 4765564, IPC: 0.238278
9062222092000: Event_144: system.switch_cpus progress event, total committed:1887896211, progress insts committed: 4788956, IPC: 0.239448
9072222092000: Event_144: system.switch_cpus progress event, total committed:1892632854, progress insts committed: 4736643, IPC: 0.236832
9082222092000: Event_144: system.switch_cpus progress event, total committed:1897197810, progress insts committed: 4564956, IPC: 0.228248
9092222092000: Event_144: system.switch_cpus progress event, total committed:1902078058, progress insts committed: 4880248, IPC: 0.244012
9102222092000: Event_144: system.switch_cpus progress event, total committed:1906801119, progress insts committed: 4723061, IPC: 0.236153
9112222092000: Event_144: system.switch_cpus progress event, total committed:1911515055, progress insts committed: 4713936, IPC: 0.235697
9122222092000: Event_144: system.switch_cpus progress event, total committed:1916364479, progress insts committed: 4849424, IPC: 0.242471
9132222092000: Event_144: system.switch_cpus progress event, total committed:1921297636, progress insts committed: 4933157, IPC: 0.246658
9142222092000: Event_144: system.switch_cpus progress event, total committed:1925929181, progress insts committed: 4631545, IPC: 0.231577
9152222092000: Event_144: system.switch_cpus progress event, total committed:1930863573, progress insts committed: 4934392, IPC: 00.24672
9162222092000: Event_144: system.switch_cpus progress event, total committed:1935850199, progress insts committed: 4986626, IPC: 0.249331
9172222092000: Event_144: system.switch_cpus progress event, total committed:1940707701, progress insts committed: 4857502, IPC: 0.242875
9182222092000: Event_144: system.switch_cpus progress event, total committed:1945644841, progress insts committed: 4937140, IPC: 0.246857
9192222092000: Event_144: system.switch_cpus progress event, total committed:1950713754, progress insts committed: 5068913, IPC: 0.253446
9202222092000: Event_144: system.switch_cpus progress event, total committed:1955623279, progress insts committed: 4909525, IPC: 0.245476
9212222092000: Event_144: system.switch_cpus progress event, total committed:1960536038, progress insts committed: 4912759, IPC: 0.245638
9222222092000: Event_144: system.switch_cpus progress event, total committed:1965543991, progress insts committed: 5007953, IPC: 0.250398
9232222092000: Event_144: system.switch_cpus progress event, total committed:1970341758, progress insts committed: 4797767, IPC: 0.239888
9242222092000: Event_144: system.switch_cpus progress event, total committed:1975374547, progress insts committed: 5032789, IPC: 0.251639
9252222092000: Event_144: system.switch_cpus progress event, total committed:1980338919, progress insts committed: 4964372, IPC: 0.248219
9262222092000: Event_144: system.switch_cpus progress event, total committed:1985271649, progress insts committed: 4932730, IPC: 0.246637
9272222092000: Event_144: system.switch_cpus progress event, total committed:1990078665, progress insts committed: 4807016, IPC: 0.240351
9282222092000: Event_144: system.switch_cpus progress event, total committed:1994999197, progress insts committed: 4920532, IPC: 0.246027
9292222092000: Event_144: system.switch_cpus progress event, total committed:1999935550, progress insts committed: 4936353, IPC: 0.246818
9302222092000: Event_144: system.switch_cpus progress event, total committed:2004751516, progress insts committed: 4815966, IPC: 0.240798
9312222092000: Event_144: system.switch_cpus progress event, total committed:2009579523, progress insts committed: 4828007, IPC: 000.2414
9322222092000: Event_144: system.switch_cpus progress event, total committed:2014456159, progress insts committed: 4876636, IPC: 0.243832
9332222092000: Event_144: system.switch_cpus progress event, total committed:2019258708, progress insts committed: 4802549, IPC: 0.240127
9342222092000: Event_144: system.switch_cpus progress event, total committed:2023962776, progress insts committed: 4704068, IPC: 0.235203
9352222092000: Event_144: system.switch_cpus progress event, total committed:2028832048, progress insts committed: 4869272, IPC: 0.243464
9362222092000: Event_144: system.switch_cpus progress event, total committed:2033541224, progress insts committed: 4709176, IPC: 0.235459
9372222092000: Event_144: system.switch_cpus progress event, total committed:2038292739, progress insts committed: 4751515, IPC: 0.237576
9382222092000: Event_144: system.switch_cpus progress event, total committed:2043180634, progress insts committed: 4887895, IPC: 0.244395
9392222092000: Event_144: system.switch_cpus progress event, total committed:2048068706, progress insts committed: 4888072, IPC: 0.244404
9402222092000: Event_144: system.switch_cpus progress event, total committed:2052715714, progress insts committed: 4647008, IPC: 00.23235
9412222092000: Event_144: system.switch_cpus progress event, total committed:2057559960, progress insts committed: 4844246, IPC: 0.242212
9422222092000: Event_144: system.switch_cpus progress event, total committed:2062417911, progress insts committed: 4857951, IPC: 0.242898
9432222092000: Event_144: system.switch_cpus progress event, total committed:2067112115, progress insts committed: 4694204, IPC: 00.23471
9442222092000: Event_144: system.switch_cpus progress event, total committed:2071888059, progress insts committed: 4775944, IPC: 0.238797
9452222092000: Event_144: system.switch_cpus progress event, total committed:2076646156, progress insts committed: 4758097, IPC: 0.237905
9462222092000: Event_144: system.switch_cpus progress event, total committed:2081351247, progress insts committed: 4705091, IPC: 0.235255
9472222092000: Event_144: system.switch_cpus progress event, total committed:2086022371, progress insts committed: 4671124, IPC: 0.233556
9482222092000: Event_144: system.switch_cpus progress event, total committed:2090728552, progress insts committed: 4706181, IPC: 0.235309
9492222092000: Event_144: system.switch_cpus progress event, total committed:2095278250, progress insts committed: 4549698, IPC: 0.227485
9502222092000: Event_144: system.switch_cpus progress event, total committed:2099908805, progress insts committed: 4630555, IPC: 0.231528
9512222092000: Event_144: system.switch_cpus progress event, total committed:2104620876, progress insts committed: 4712071, IPC: 0.235604
9522222092000: Event_144: system.switch_cpus progress event, total committed:2109253818, progress insts committed: 4632942, IPC: 0.231647
9532222092000: Event_144: system.switch_cpus progress event, total committed:2113834188, progress insts committed: 4580370, IPC: 0.229019
9542222092000: Event_144: system.switch_cpus progress event, total committed:2118498909, progress insts committed: 4664721, IPC: 0.233236
9552222092000: Event_144: system.switch_cpus progress event, total committed:2123171283, progress insts committed: 4672374, IPC: 0.233619
9562222092000: Event_144: system.switch_cpus progress event, total committed:2127725455, progress insts committed: 4554172, IPC: 0.227709
9572222092000: Event_144: system.switch_cpus progress event, total committed:2132453518, progress insts committed: 4728063, IPC: 0.236403
9582222092000: Event_144: system.switch_cpus progress event, total committed:2137199694, progress insts committed: 4746176, IPC: 0.237309
9592222092000: Event_144: system.switch_cpus progress event, total committed:2141674414, progress insts committed: 4474720, IPC: 0.223736
9602222092000: Event_144: system.switch_cpus progress event, total committed:2146358558, progress insts committed: 4684144, IPC: 0.234207
9612222092000: Event_144: system.switch_cpus progress event, total committed:2151112008, progress insts committed: 4753450, IPC: 0.237673
9622222092000: Event_144: system.switch_cpus progress event, total committed:2155658280, progress insts committed: 4546272, IPC: 0.227314
9632222092000: Event_144: system.switch_cpus progress event, total committed:2160477857, progress insts committed: 4819577, IPC: 0.240979
9642222092000: Event_144: system.switch_cpus progress event, total committed:2165240682, progress insts committed: 4762825, IPC: 0.238141
9652222092000: Event_144: system.switch_cpus progress event, total committed:2170170271, progress insts committed: 4929589, IPC: 0.246479
9662222092000: Event_144: system.switch_cpus progress event, total committed:2174960726, progress insts committed: 4790455, IPC: 0.239523
9672222092000: Event_144: system.switch_cpus progress event, total committed:2179794680, progress insts committed: 4833954, IPC: 0.241698
9682222092000: Event_144: system.switch_cpus progress event, total committed:2184840446, progress insts committed: 5045766, IPC: 0.252288
9692222092000: Event_144: system.switch_cpus progress event, total committed:2189594330, progress insts committed: 4753884, IPC: 0.237694
9702222092000: Event_144: system.switch_cpus progress event, total committed:2194501532, progress insts committed: 4907202, IPC: 00.24536
9712222092000: Event_144: system.switch_cpus progress event, total committed:2199598737, progress insts committed: 5097205, IPC: 00.25486
9722222092000: Event_144: system.switch_cpus progress event, total committed:2204460658, progress insts committed: 4861921, IPC: 0.243096
9732222092000: Event_144: system.switch_cpus progress event, total committed:2209303109, progress insts committed: 4842451, IPC: 0.242123
9742222092000: Event_144: system.switch_cpus progress event, total committed:2214264961, progress insts committed: 4961852, IPC: 0.248093
9752222092000: Event_144: system.switch_cpus progress event, total committed:2219021566, progress insts committed: 4756605, IPC: 00.23783
9762222092000: Event_144: system.switch_cpus progress event, total committed:2223764535, progress insts committed: 4742969, IPC: 0.237148
9772222092000: Event_144: system.switch_cpus progress event, total committed:2228710732, progress insts committed: 4946197, IPC: 00.24731
9782222092000: Event_144: system.switch_cpus progress event, total committed:2233346442, progress insts committed: 4635710, IPC: 0.231786
9792222092000: Event_144: system.switch_cpus progress event, total committed:2238132723, progress insts committed: 4786281, IPC: 0.239314
9802222092000: Event_144: system.switch_cpus progress event, total committed:2242919028, progress insts committed: 4786305, IPC: 0.239315
9812222092000: Event_144: system.switch_cpus progress event, total committed:2247746307, progress insts committed: 4827279, IPC: 0.241364
9822222092000: Event_144: system.switch_cpus progress event, total committed:2252466271, progress insts committed: 4719964, IPC: 0.235998
9832222092000: Event_144: system.switch_cpus progress event, total committed:2257132052, progress insts committed: 4665781, IPC: 0.233289
9842222092000: Event_144: system.switch_cpus progress event, total committed:2261866725, progress insts committed: 4734673, IPC: 0.236734
9852222092000: Event_144: system.switch_cpus progress event, total committed:2266527957, progress insts committed: 4661232, IPC: 0.233062
9862222092000: Event_144: system.switch_cpus progress event, total committed:2271222752, progress insts committed: 4694795, IPC: 00.23474
9872222092000: Event_144: system.switch_cpus progress event, total committed:2275819810, progress insts committed: 4597058, IPC: 0.229853
9882222092000: Event_144: system.switch_cpus progress event, total committed:2280528198, progress insts committed: 4708388, IPC: 0.235419
9892222092000: Event_144: system.switch_cpus progress event, total committed:2285177678, progress insts committed: 4649480, IPC: 0.232474
9902222092000: Event_144: system.switch_cpus progress event, total committed:2289779893, progress insts committed: 4602215, IPC: 0.230111
9912222092000: Event_144: system.switch_cpus progress event, total committed:2294436298, progress insts committed: 4656405, IPC: 00.23282
9922222092000: Event_144: system.switch_cpus progress event, total committed:2299151933, progress insts committed: 4715635, IPC: 0.235782
9932222092000: Event_144: system.switch_cpus progress event, total committed:2303854830, progress insts committed: 4702897, IPC: 0.235145
9942222092000: Event_144: system.switch_cpus progress event, total committed:2308613480, progress insts committed: 4758650, IPC: 0.237932
9952222092000: Event_144: system.switch_cpus progress event, total committed:2313245830, progress insts committed: 4632350, IPC: 0.231618
9962222092000: Event_144: system.switch_cpus progress event, total committed:2318011457, progress insts committed: 4765627, IPC: 0.238281
9972222092000: Event_144: system.switch_cpus progress event, total committed:2322942753, progress insts committed: 4931296, IPC: 0.246565
9982222092000: Event_144: system.switch_cpus progress event, total committed:2327625323, progress insts committed: 4682570, IPC: 0.234128
9992222092000: Event_144: system.switch_cpus progress event, total committed:2332593727, progress insts committed: 4968404, IPC: 00.24842
10002222092000: Event_144: system.switch_cpus progress event, total committed:2337584935, progress insts committed: 4991208, IPC: 00.24956
10012222092000: Event_144: system.switch_cpus progress event, total committed:2342475102, progress insts committed: 4890167, IPC: 0.244508
10022222092000: Event_144: system.switch_cpus progress event, total committed:2347460616, progress insts committed: 4985514, IPC: 0.249276
10032222092000: Event_144: system.switch_cpus progress event, total committed:2352313560, progress insts committed: 4852944, IPC: 0.242647
10042222092000: Event_144: system.switch_cpus progress event, total committed:2357166950, progress insts committed: 4853390, IPC: 00.24267
10052222092000: Event_144: system.switch_cpus progress event, total committed:2362201997, progress insts committed: 5035047, IPC: 0.251752
10062222092000: Event_144: system.switch_cpus progress event, total committed:2367109246, progress insts committed: 4907249, IPC: 0.245362
10072222092000: Event_144: system.switch_cpus progress event, total committed:2372220383, progress insts committed: 5111137, IPC: 0.255557
10082222092000: Event_144: system.switch_cpus progress event, total committed:2377086238, progress insts committed: 4865855, IPC: 0.243293
10092222092000: Event_144: system.switch_cpus progress event, total committed:2381875836, progress insts committed: 4789598, IPC: 00.23948
10102222092000: Event_144: system.switch_cpus progress event, total committed:2386842277, progress insts committed: 4966441, IPC: 0.248322
10112222092000: Event_144: system.switch_cpus progress event, total committed:2391543159, progress insts committed: 4700882, IPC: 0.235044
10122222092000: Event_144: system.switch_cpus progress event, total committed:2396429461, progress insts committed: 4886302, IPC: 0.244315
10132222092000: Event_144: system.switch_cpus progress event, total committed:2401295818, progress insts committed: 4866357, IPC: 0.243318
10142222092000: Event_144: system.switch_cpus progress event, total committed:2405982191, progress insts committed: 4686373, IPC: 0.234319
10152222092000: Event_144: system.switch_cpus progress event, total committed:2410808613, progress insts committed: 4826422, IPC: 0.241321
10162222092000: Event_144: system.switch_cpus progress event, total committed:2415562089, progress insts committed: 4753476, IPC: 0.237674
10172222092000: Event_144: system.switch_cpus progress event, total committed:2420135414, progress insts committed: 4573325, IPC: 0.228666
10182222092000: Event_144: system.switch_cpus progress event, total committed:2424891540, progress insts committed: 4756126, IPC: 0.237806
10192222092000: Event_144: system.switch_cpus progress event, total committed:2429675124, progress insts committed: 4783584, IPC: 0.239179
10202222092000: Event_144: system.switch_cpus progress event, total committed:2434417292, progress insts committed: 4742168, IPC: 0.237108
10212222092000: Event_144: system.switch_cpus progress event, total committed:2438986925, progress insts committed: 4569633, IPC: 0.228482
10222222092000: Event_144: system.switch_cpus progress event, total committed:2443827262, progress insts committed: 4840337, IPC: 0.242017
10232222092000: Event_144: system.switch_cpus progress event, total committed:2448657611, progress insts committed: 4830349, IPC: 0.241517
10242222092000: Event_144: system.switch_cpus progress event, total committed:2453353867, progress insts committed: 4696256, IPC: 0.234813
10252222092000: Event_144: system.switch_cpus progress event, total committed:2458239717, progress insts committed: 4885850, IPC: 0.244292
10262222092000: Event_144: system.switch_cpus progress event, total committed:2463163849, progress insts committed: 4924132, IPC: 0.246207
10272222092000: Event_144: system.switch_cpus progress event, total committed:2467930838, progress insts committed: 4766989, IPC: 0.238349
10282222092000: Event_144: system.switch_cpus progress event, total committed:2472747428, progress insts committed: 4816590, IPC: 00.24083
10292222092000: Event_144: system.switch_cpus progress event, total committed:2477683020, progress insts committed: 4935592, IPC: 00.24678
10302222092000: Event_144: system.switch_cpus progress event, total committed:2482389333, progress insts committed: 4706313, IPC: 0.235316
10312222092000: Event_144: system.switch_cpus progress event, total committed:2487186437, progress insts committed: 4797104, IPC: 0.239855
10322222092000: Event_144: system.switch_cpus progress event, total committed:2491957921, progress insts committed: 4771484, IPC: 0.238574
10332222092000: Event_144: system.switch_cpus progress event, total committed:2496755778, progress insts committed: 4797857, IPC: 0.239893
10342222092000: Event_144: system.switch_cpus progress event, total committed:2501440281, progress insts committed: 4684503, IPC: 0.234225
10352222092000: Event_144: system.switch_cpus progress event, total committed:2506220890, progress insts committed: 4780609, IPC: 00.23903
10362222092000: Event_144: system.switch_cpus progress event, total committed:2511050115, progress insts committed: 4829225, IPC: 0.241461
10372222092000: Event_144: system.switch_cpus progress event, total committed:2515674403, progress insts committed: 4624288, IPC: 0.231214
10382222092000: Event_144: system.switch_cpus progress event, total committed:2520590273, progress insts committed: 4915870, IPC: 0.245793
10392222092000: Event_144: system.switch_cpus progress event, total committed:2525350969, progress insts committed: 4760696, IPC: 0.238035
10402222092000: Event_144: system.switch_cpus progress event, total committed:2530071785, progress insts committed: 4720816, IPC: 0.236041
10412222092000: Event_144: system.switch_cpus progress event, total committed:2534982488, progress insts committed: 4910703, IPC: 0.245535
10422222092000: Event_144: system.switch_cpus progress event, total committed:2539800005, progress insts committed: 4817517, IPC: 0.240876
10432222092000: Event_144: system.switch_cpus progress event, total committed:2544484579, progress insts committed: 4684574, IPC: 0.234229
10442222092000: Event_144: system.switch_cpus progress event, total committed:2549308763, progress insts committed: 4824184, IPC: 0.241209
10452222092000: Event_144: system.switch_cpus progress event, total committed:2554143615, progress insts committed: 4834852, IPC: 0.241743
10462222092000: Event_144: system.switch_cpus progress event, total committed:2558833111, progress insts committed: 4689496, IPC: 0.234475
10472222092000: Event_144: system.switch_cpus progress event, total committed:2563679715, progress insts committed: 4846604, IPC: 00.24233
10482222092000: Event_144: system.switch_cpus progress event, total committed:2568458218, progress insts committed: 4778503, IPC: 0.238925
10492222092000: Event_144: system.switch_cpus progress event, total committed:2573239370, progress insts committed: 4781152, IPC: 0.239058
10502222092000: Event_144: system.switch_cpus progress event, total committed:2577852959, progress insts committed: 4613589, IPC: 0.230679
10512222092000: Event_144: system.switch_cpus progress event, total committed:2582538808, progress insts committed: 4685849, IPC: 0.234292
10522222092000: Event_144: system.switch_cpus progress event, total committed:2587348571, progress insts committed: 4809763, IPC: 0.240488
10532222092000: Event_144: system.switch_cpus progress event, total committed:2591907890, progress insts committed: 4559319, IPC: 0.227966
10542222092000: Event_144: system.switch_cpus progress event, total committed:2596595960, progress insts committed: 4688070, IPC: 0.234403
10552222092000: Event_144: system.switch_cpus progress event, total committed:2601314101, progress insts committed: 4718141, IPC: 0.235907
10562222092000: Event_144: system.switch_cpus progress event, total committed:2606023033, progress insts committed: 4708932, IPC: 0.235447
10572222092000: Event_144: system.switch_cpus progress event, total committed:2610839060, progress insts committed: 4816027, IPC: 0.240801
10582222092000: Event_144: system.switch_cpus progress event, total committed:2615526502, progress insts committed: 4687442, IPC: 0.234372
10592222092000: Event_144: system.switch_cpus progress event, total committed:2620181634, progress insts committed: 4655132, IPC: 0.232757
10602222092000: Event_144: system.switch_cpus progress event, total committed:2624810544, progress insts committed: 4628910, IPC: 0.231445
10612222092000: Event_144: system.switch_cpus progress event, total committed:2629427825, progress insts committed: 4617281, IPC: 0.230864
10622222092000: Event_144: system.switch_cpus progress event, total committed:2634232528, progress insts committed: 4804703, IPC: 0.240235
10632222092000: Event_144: system.switch_cpus progress event, total committed:2638776290, progress insts committed: 4543762, IPC: 0.227188
10642222092000: Event_144: system.switch_cpus progress event, total committed:2643416842, progress insts committed: 4640552, IPC: 0.232028
10652222092000: Event_144: system.switch_cpus progress event, total committed:2648266327, progress insts committed: 4849485, IPC: 0.242474
10662222092000: Event_144: system.switch_cpus progress event, total committed:2652978432, progress insts committed: 4712105, IPC: 0.235605
10672222092000: Event_144: system.switch_cpus progress event, total committed:2657730898, progress insts committed: 4752466, IPC: 0.237623
10682222092000: Event_144: system.switch_cpus progress event, total committed:2662619252, progress insts committed: 4888354, IPC: 0.244418
10692222092000: Event_144: system.switch_cpus progress event, total committed:2667374358, progress insts committed: 4755106, IPC: 0.237755
10702222092000: Event_144: system.switch_cpus progress event, total committed:2672133517, progress insts committed: 4759159, IPC: 0.237958
10712222092000: Event_144: system.switch_cpus progress event, total committed:2677014495, progress insts committed: 4880978, IPC: 0.244049
10722222092000: Event_144: system.switch_cpus progress event, total committed:2681662652, progress insts committed: 4648157, IPC: 0.232408
10732222092000: Event_144: system.switch_cpus progress event, total committed:2686538707, progress insts committed: 4876055, IPC: 0.243803
10742222092000: Event_144: system.switch_cpus progress event, total committed:2691325923, progress insts committed: 4787216, IPC: 0.239361
10752222092000: Event_144: system.switch_cpus progress event, total committed:2696243624, progress insts committed: 4917701, IPC: 0.245885
10762222092000: Event_144: system.switch_cpus progress event, total committed:2700795540, progress insts committed: 4551916, IPC: 0.227596
10772222092000: Event_144: system.switch_cpus progress event, total committed:2705587002, progress insts committed: 4791462, IPC: 0.239573
10782222092000: Event_144: system.switch_cpus progress event, total committed:2710463289, progress insts committed: 4876287, IPC: 0.243814
10792222092000: Event_144: system.switch_cpus progress event, total committed:2715132357, progress insts committed: 4669068, IPC: 0.233453
10802222092000: Event_144: system.switch_cpus progress event, total committed:2719920499, progress insts committed: 4788142, IPC: 0.239407
10812222092000: Event_144: system.switch_cpus progress event, total committed:2724790710, progress insts committed: 4870211, IPC: 0.243511
10822222092000: Event_144: system.switch_cpus progress event, total committed:2729607275, progress insts committed: 4816565, IPC: 0.240828
10832222092000: Event_144: system.switch_cpus progress event, total committed:2734482383, progress insts committed: 4875108, IPC: 0.243755
10842222092000: Event_144: system.switch_cpus progress event, total committed:2739463408, progress insts committed: 4981025, IPC: 0.249051
10852222092000: Event_144: system.switch_cpus progress event, total committed:2744242995, progress insts committed: 4779587, IPC: 0.238979
10862222092000: Event_144: system.switch_cpus progress event, total committed:2749155447, progress insts committed: 4912452, IPC: 0.245623
10872222092000: Event_144: system.switch_cpus progress event, total committed:2754051078, progress insts committed: 4895631, IPC: 0.244782
10882222092000: Event_144: system.switch_cpus progress event, total committed:2759001429, progress insts committed: 4950351, IPC: 0.247518
10892222092000: Event_144: system.switch_cpus progress event, total committed:2763755118, progress insts committed: 4753689, IPC: 0.237684
10902222092000: Event_144: system.switch_cpus progress event, total committed:2768614215, progress insts committed: 4859097, IPC: 0.242955
10912222092000: Event_144: system.switch_cpus progress event, total committed:2773576581, progress insts committed: 4962366, IPC: 0.248118
10922222092000: Event_144: system.switch_cpus progress event, total committed:2778375516, progress insts committed: 4798935, IPC: 0.239947
10932222092000: Event_144: system.switch_cpus progress event, total committed:2783335825, progress insts committed: 4960309, IPC: 0.248015
10942222092000: Event_144: system.switch_cpus progress event, total committed:2788235696, progress insts committed: 4899871, IPC: 0.244994
10952222092000: Event_144: system.switch_cpus progress event, total committed:2792937176, progress insts committed: 4701480, IPC: 0.235074
10962222092000: Event_144: system.switch_cpus progress event, total committed:2797802018, progress insts committed: 4864842, IPC: 0.243242
10972222092000: Event_144: system.switch_cpus progress event, total committed:2802680351, progress insts committed: 4878333, IPC: 0.243917
10982222092000: Event_144: system.switch_cpus progress event, total committed:2807282477, progress insts committed: 4602126, IPC: 0.230106
10992222092000: Event_144: system.switch_cpus progress event, total committed:2812136872, progress insts committed: 4854395, IPC: 00.24272
11002222092000: Event_144: system.switch_cpus progress event, total committed:2817052711, progress insts committed: 4915839, IPC: 0.245792
11012222092000: Event_144: system.switch_cpus progress event, total committed:2821909619, progress insts committed: 4856908, IPC: 0.242845
11022222092000: Event_144: system.switch_cpus progress event, total committed:2826756132, progress insts committed: 4846513, IPC: 0.242326
11032222092000: Event_144: system.switch_cpus progress event, total committed:2831816831, progress insts committed: 5060699, IPC: 0.253035
11042222092000: Event_144: system.switch_cpus progress event, total committed:2837001103, progress insts committed: 5184272, IPC: 0.259214
11052222092000: Event_144: system.switch_cpus progress event, total committed:2842066046, progress insts committed: 5064943, IPC: 0.253247
11062222092000: Event_144: system.switch_cpus progress event, total committed:2847468839, progress insts committed: 5402793, IPC: 00.27014
11072222092000: Event_144: system.switch_cpus progress event, total committed:2852977703, progress insts committed: 5508864, IPC: 0.275443
11082222092000: Event_144: system.switch_cpus progress event, total committed:2858664829, progress insts committed: 5687126, IPC: 0.284356
11092222092000: Event_144: system.switch_cpus progress event, total committed:2864437368, progress insts committed: 5772539, IPC: 0.288627
11102222092000: Event_144: system.switch_cpus progress event, total committed:2870526562, progress insts committed: 6089194, IPC: 00.30446
11112222092000: Event_144: system.switch_cpus progress event, total committed:2876789032, progress insts committed: 6262470, IPC: 0.313123
11122222092000: Event_144: system.switch_cpus progress event, total committed:2883247325, progress insts committed: 6458293, IPC: 0.322915
11132222092000: Event_144: system.switch_cpus progress event, total committed:2890043921, progress insts committed: 6796596, IPC: 00.33983
11142222092000: Event_144: system.switch_cpus progress event, total committed:2896968935, progress insts committed: 6925014, IPC: 0.346251
11152222092000: Event_144: system.switch_cpus progress event, total committed:2904124882, progress insts committed: 7155947, IPC: 0.357797
11162222092000: Event_144: system.switch_cpus progress event, total committed:2911580731, progress insts committed: 7455849, IPC: 0.372792
11172222092000: Event_144: system.switch_cpus progress event, total committed:2919178447, progress insts committed: 7597716, IPC: 0.379886
11182222092000: Event_144: system.switch_cpus progress event, total committed:2926960211, progress insts committed: 7781764, IPC: 0.389088
[...]
18302222092000: Event_144: system.switch_cpus progress event, total committed:6730669167, progress insts committed: 4948734, IPC: 0.247437
18312222092000: Event_144: system.switch_cpus progress event, total committed:6735296157, progress insts committed: 4626990, IPC: 00.23135
18322222092000: Event_144: system.switch_cpus progress event, total committed:6740168726, progress insts committed: 4872569, IPC: 0.243628
18332222092000: Event_144: system.switch_cpus progress event, total committed:6745003276, progress insts committed: 4834550, IPC: 0.241728
18342222092000: Event_144: system.switch_cpus progress event, total committed:6749605743, progress insts committed: 4602467, IPC: 0.230123
18352222092000: Event_144: system.switch_cpus progress event, total committed:6754494590, progress insts committed: 4888847, IPC: 0.244442
18362222092000: Event_144: system.switch_cpus progress event, total committed:6759297530, progress insts committed: 4802940, IPC: 0.240147
18372222092000: Event_144: system.switch_cpus progress event, total committed:6763976197, progress insts committed: 4678667, IPC: 0.233933
18382222092000: Event_144: system.switch_cpus progress event, total committed:6768828800, progress insts committed: 4852603, IPC: 00.24263
18392222092000: Event_144: system.switch_cpus progress event, total committed:6773524702, progress insts committed: 4695902, IPC: 0.234795
18402222092000: Event_144: system.switch_cpus progress event, total committed:6778505688, progress insts committed: 4980986, IPC: 0.249049
18412222092000: Event_144: system.switch_cpus progress event, total committed:6783130495, progress insts committed: 4624807, IPC: 00.23124
18422222092000: Event_144: system.switch_cpus progress event, total committed:6787894937, progress insts committed: 4764442, IPC: 0.238222
18432222092000: Event_144: system.switch_cpus progress event, total committed:6792837266, progress insts committed: 4942329, IPC: 0.247116
18442222092000: Event_144: system.switch_cpus progress event, total committed:6797717140, progress insts committed: 4879874, IPC: 0.243994
18452222092000: Event_144: system.switch_cpus progress event, total committed:6802550514, progress insts committed: 4833374, IPC: 0.241669
18462222092000: Event_144: system.switch_cpus progress event, total committed:6807587106, progress insts committed: 5036592, IPC: 00.25183
18472222092000: Event_144: system.switch_cpus progress event, total committed:6812394339, progress insts committed: 4807233, IPC: 0.240362
18482222092000: Event_144: system.switch_cpus progress event, total committed:6817210627, progress insts committed: 4816288, IPC: 0.240814
18492222092000: Event_144: system.switch_cpus progress event, total committed:6822171325, progress insts committed: 4960698, IPC: 0.248035
18502222092000: Event_144: system.switch_cpus progress event, total committed:6826950738, progress insts committed: 4779413, IPC: 0.238971
18512222092000: Event_144: system.switch_cpus progress event, total committed:6831777999, progress insts committed: 4827261, IPC: 0.241363
18522222092000: Event_144: system.switch_cpus progress event, total committed:6836763406, progress insts committed: 4985407, IPC: 00.24927
18532222092000: Event_144: system.switch_cpus progress event, total committed:6841667789, progress insts committed: 4904383, IPC: 0.245219
18542222092000: Event_144: system.switch_cpus progress event, total committed:6846490539, progress insts committed: 4822750, IPC: 0.241138
18552222092000: Event_144: system.switch_cpus progress event, total committed:6851394856, progress insts committed: 4904317, IPC: 0.245216
18562222092000: Event_144: system.switch_cpus progress event, total committed:6856273479, progress insts committed: 4878623, IPC: 0.243931
18572222092000: Event_144: system.switch_cpus progress event, total committed:6860913442, progress insts committed: 4639963, IPC: 0.231998
18582222092000: Event_144: system.switch_cpus progress event, total committed:6865820085, progress insts committed: 4906643, IPC: 0.245332
18592222092000: Event_144: system.switch_cpus progress event, total committed:6870691805, progress insts committed: 4871720, IPC: 0.243586
18602222092000: Event_144: system.switch_cpus progress event, total committed:6875257826, progress insts committed: 4566021, IPC: 0.228301
18612222092000: Event_144: system.switch_cpus progress event, total committed:6880182745, progress insts committed: 4924919, IPC: 0.246246
18622222092000: Event_144: system.switch_cpus progress event, total committed:6885167414, progress insts committed: 4984669, IPC: 0.249233
18632222092000: Event_144: system.switch_cpus progress event, total committed:6889953987, progress insts committed: 4786573, IPC: 0.239329
18642222092000: Event_144: system.switch_cpus progress event, total committed:6895025245, progress insts committed: 5071258, IPC: 0.253563
18652222092000: Event_144: system.switch_cpus progress event, total committed:6900210622, progress insts committed: 5185377, IPC: 0.259269
18662222092000: Event_144: system.switch_cpus progress event, total committed:6905398905, progress insts committed: 5188283, IPC: 0.259414
18672222092000: Event_144: system.switch_cpus progress event, total committed:6910837377, progress insts committed: 5438472, IPC: 0.271924
18682222092000: Event_144: system.switch_cpus progress event, total committed:6916480063, progress insts committed: 5642686, IPC: 0.282134
18692222092000: Event_144: system.switch_cpus progress event, total committed:6922149626, progress insts committed: 5669563, IPC: 0.283478
18702222092000: Event_144: system.switch_cpus progress event, total committed:6928068529, progress insts committed: 5918903, IPC: 0.295945
18712222092000: Event_144: system.switch_cpus progress event, total committed:6934202699, progress insts committed: 6134170, IPC: 0.306708
18722222092000: Event_144: system.switch_cpus progress event, total committed:6940455795, progress insts committed: 6253096, IPC: 0.312655
18732222092000: Event_144: system.switch_cpus progress event, total committed:6947104945, progress insts committed: 6649150, IPC: 0.332458
18742222092000: Event_144: system.switch_cpus progress event, total committed:6953888837, progress insts committed: 6783892, IPC: 0.339195
18752222092000: Event_144: system.switch_cpus progress event, total committed:6960862856, progress insts committed: 6974019, IPC: 0.348701
18762222092000: Event_144: system.switch_cpus progress event, total committed:6968176141, progress insts committed: 7313285, IPC: 0.365664
18772222092000: Event_144: system.switch_cpus progress event, total committed:6975621471, progress insts committed: 7445330, IPC: 0.372267
18782222092000: Event_144: system.switch_cpus progress event, total committed:6983258199, progress insts committed: 7636728, IPC: 0.381836
18792222092000: Event_144: system.switch_cpus progress event, total committed:6991167348, progress insts committed: 7909149, IPC: 0.395457
18802222092000: Event_144: system.switch_cpus progress event, total committed:6999369887, progress insts committed: 8202539, IPC: 0.410127
18812222092000: Event_144: system.switch_cpus progress event, total committed:7007586787, progress insts committed: 8216900, IPC: 0.410845
18822222092000: Event_144: system.switch_cpus progress event, total committed:7016058160, progress insts committed: 8471373, IPC: 0.423569
18832222092000: Event_144: system.switch_cpus progress event, total committed:7024857597, progress insts committed: 8799437, IPC: 0.439972
18842222092000: Event_144: system.switch_cpus progress event, total committed:7033522948, progress insts committed: 8665351, IPC: 0.433268
18852222092000: Event_144: system.switch_cpus progress event, total committed:7042391401, progress insts committed: 8868453, IPC: 0.443423
18862222092000: Event_144: system.switch_cpus progress event, total committed:7051518272, progress insts committed: 9126871, IPC: 0.456344
18872222092000: Event_144: system.switch_cpus progress event, total committed:7060548640, progress insts committed: 9030368, IPC: 0.451518
18882222092000: Event_144: system.switch_cpus progress event, total committed:7069618002, progress insts committed: 9069362, IPC: 0.453468
18892222092000: Event_144: system.switch_cpus progress event, total committed:7078828021, progress insts committed: 9210019, IPC: 0.460501
18902222092000: Event_144: system.switch_cpus progress event, total committed:7088088212, progress insts committed: 9260191, IPC: 00.46301
18912222092000: Event_144: system.switch_cpus progress event, total committed:7097307870, progress insts committed: 9219658, IPC: 0.460983
18922222092000: Event_144: system.switch_cpus progress event, total committed:7106600274, progress insts committed: 9292404, IPC: 00.46462
18932222092000: Event_144: system.switch_cpus progress event, total committed:7115984451, progress insts committed: 9384177, IPC: 0.469209
18942222092000: Event_144: system.switch_cpus progress event, total committed:7125285056, progress insts committed: 9300605, IPC: 00.46503
18952222092000: Event_144: system.switch_cpus progress event, total committed:7134648947, progress insts committed: 9363891, IPC: 0.468195
18962222092000: Event_144: system.switch_cpus progress event, total committed:7144125468, progress insts committed: 9476521, IPC: 0.473826
18972222092000: Event_144: system.switch_cpus progress event, total committed:7153511611, progress insts committed: 9386143, IPC: 0.469307
18982222092000: Event_144: system.switch_cpus progress event, total committed:7162899283, progress insts committed: 9387672, IPC: 0.469384
18992222092000: Event_144: system.switch_cpus progress event, total committed:7172396626, progress insts committed: 9497343, IPC: 0.474867
19002222092000: Event_144: system.switch_cpus progress event, total committed:7181783520, progress insts committed: 9386894, IPC: 0.469345
19012222092000: Event_144: system.switch_cpus progress event, total committed:7191167903, progress insts committed: 9384383, IPC: 0.469219
19022222092000: Event_144: system.switch_cpus progress event, total committed:7200664863, progress insts committed: 9496960, IPC: 0.474848
19032222092000: Event_144: system.switch_cpus progress event, total committed:7210047004, progress insts committed: 9382141, IPC: 0.469107
19042222092000: Event_144: system.switch_cpus progress event, total committed:7219433939, progress insts committed: 9386935, IPC: 0.469347
19052222092000: Event_144: system.switch_cpus progress event, total committed:7228933566, progress insts committed: 9499627, IPC: 0.474981
19062222092000: Event_144: system.switch_cpus progress event, total committed:7238321630, progress insts committed: 9388064, IPC: 0.469403
19072222092000: Event_144: system.switch_cpus progress event, total committed:7247817019, progress insts committed: 9495389, IPC: 0.474769
19082222092000: Event_144: system.switch_cpus progress event, total committed:7257199887, progress insts committed: 9382868, IPC: 0.469143
19092222092000: Event_144: system.switch_cpus progress event, total committed:7266061824, progress insts committed: 8861937, IPC: 0.443097
19102222092000: Event_144: system.switch_cpus progress event, total committed:7274207626, progress insts committed: 8145802, IPC: 00.40729
19112222092000: Event_144: system.switch_cpus progress event, total committed:7276534037, progress insts committed: 2326411, IPC: 0.116321
19122222092000: Event_144: system.switch_cpus progress event, total committed:7277876198, progress insts committed: 1342161, IPC: 0.0671081
19132222092000: Event_144: system.switch_cpus progress event, total committed:7279632188, progress insts committed: 1755990, IPC: 0.0877995
19142222092000: Event_144: system.switch_cpus progress event, total committed:7287842943, progress insts committed: 8210755, IPC: 0.410538
19152222092000: Event_144: system.switch_cpus progress event, total committed:7296601713, progress insts committed: 8758770, IPC: 0.437939
19162222092000: Event_144: system.switch_cpus progress event, total committed:7306019121, progress insts committed: 9417408, IPC: 00.47087
19172222092000: Event_144: system.switch_cpus progress event, total committed:7315329653, progress insts committed: 9310532, IPC: 0.465527
19182222092000: Event_144: system.switch_cpus progress event, total committed:7324640973, progress insts committed: 9311320, IPC: 0.465566
19192222092000: Event_144: system.switch_cpus progress event, total committed:7334060756, progress insts committed: 9419783, IPC: 0.470989
19202222092000: Event_144: system.switch_cpus progress event, total committed:7343374508, progress insts committed: 9313752, IPC: 0.465688
19212222092000: Event_144: system.switch_cpus progress event, total committed:7352683637, progress insts committed: 9309129, IPC: 0.465456
19222222092000: Event_144: system.switch_cpus progress event, total committed:7362106145, progress insts committed: 9422508, IPC: 0.471125
19232222092000: Event_144: system.switch_cpus progress event, total committed:7371417867, progress insts committed: 9311722, IPC: 0.465586
19242222092000: Event_144: system.switch_cpus progress event, total committed:7380728132, progress insts committed: 9310265, IPC: 0.465513
19252222092000: Event_144: system.switch_cpus progress event, total committed:7390148767, progress insts committed: 9420635, IPC: 0.471032
19262222092000: Event_144: system.switch_cpus progress event, total committed:7399460133, progress insts committed: 9311366, IPC: 0.465568
19272222092000: Event_144: system.switch_cpus progress event, total committed:7408703104, progress insts committed: 9242971, IPC: 0.462149
19282222092000: Event_144: system.switch_cpus progress event, total committed:7417347259, progress insts committed: 8644155, IPC: 0.432208
19292222092000: Event_144: system.switch_cpus progress event, total committed:7425147061, progress insts committed: 7799802, IPC: 00.38999
19302222092000: Event_144: system.switch_cpus progress event, total committed:7432500113, progress insts committed: 7353052, IPC: 0.367653
19312222092000: Event_144: system.switch_cpus progress event, total committed:7438422184, progress insts committed: 5922071, IPC: 0.296104
19322222092000: Event_144: system.switch_cpus progress event, total committed:7444109749, progress insts committed: 5687565, IPC: 0.284378
19332222092000: Event_144: system.switch_cpus progress event, total committed:7449408491, progress insts committed: 5298742, IPC: 0.264937
19342222092000: Event_144: system.switch_cpus progress event, total committed:7453603516, progress insts committed: 4195025, IPC: 0.209751
19352222092000: Event_144: system.switch_cpus progress event, total committed:7457820993, progress insts committed: 4217477, IPC: 0.210874
19362222092000: Event_144: system.switch_cpus progress event, total committed:7461931882, progress insts committed: 4110889, IPC: 0.205544
19372222092000: Event_144: system.switch_cpus progress event, total committed:7465430582, progress insts committed: 3498700, IPC: 0.174935
19382222092000: Event_144: system.switch_cpus progress event, total committed:7469169995, progress insts committed: 3739413, IPC: 0.186971
19392222092000: Event_144: system.switch_cpus progress event, total committed:7472949768, progress insts committed: 3779773, IPC: 0.188989
19402222092000: Event_144: system.switch_cpus progress event, total committed:7476475733, progress insts committed: 3525965, IPC: 0.176298
19412222092000: Event_144: system.switch_cpus progress event, total committed:7480607453, progress insts committed: 4131720, IPC: 0.206586
19422222092000: Event_144: system.switch_cpus progress event, total committed:7484499362, progress insts committed: 3891909, IPC: 0.194595
19432222092000: Event_144: system.switch_cpus progress event, total committed:7488596363, progress insts committed: 4097001, IPC: 00.20485
19442222092000: Event_144: system.switch_cpus progress event, total committed:7492952386, progress insts committed: 4356023, IPC: 0.217801
19452222092000: Event_144: system.switch_cpus progress event, total committed:7497425696, progress insts committed: 4473310, IPC: 0.223665
19462222092000: Event_144: system.switch_cpus progress event, total committed:7501961430, progress insts committed: 4535734, IPC: 0.226787
19472222092000: Event_144: system.switch_cpus progress event, total committed:7506508509, progress insts committed: 4547079, IPC: 0.227354
19482222092000: Event_144: system.switch_cpus progress event, total committed:7511315272, progress insts committed: 4806763, IPC: 0.240338
19492222092000: Event_144: system.switch_cpus progress event, total committed:7516110736, progress insts committed: 4795464, IPC: 0.239773
19502222092000: Event_144: system.switch_cpus progress event, total committed:7520895567, progress insts committed: 4784831, IPC: 0.239242
19512222092000: Event_144: system.switch_cpus progress event, total committed:7525752199, progress insts committed: 4856632, IPC: 0.242832
19522222092000: Event_144: system.switch_cpus progress event, total committed:7530611541, progress insts committed: 4859342, IPC: 0.242967
19532222092000: Event_144: system.switch_cpus progress event, total committed:7535460161, progress insts committed: 4848620, IPC: 0.242431
19542222092000: Event_144: system.switch_cpus progress event, total committed:7540416783, progress insts committed: 4956622, IPC: 0.247831
19552222092000: Event_144: system.switch_cpus progress event, total committed:7545439229, progress insts committed: 5022446, IPC: 0.251122
19562222092000: Event_144: system.switch_cpus progress event, total committed:7550344085, progress insts committed: 4904856, IPC: 0.245243
19572222092000: Event_144: system.switch_cpus progress event, total committed:7555235395, progress insts committed: 4891310, IPC: 0.244565
19582222092000: Event_144: system.switch_cpus progress event, total committed:7560210587, progress insts committed: 4975192, IPC: 00.24876
19592222092000: Event_144: system.switch_cpus progress event, total committed:7565039222, progress insts committed: 4828635, IPC: 0.241432
19602222092000: Event_144: system.switch_cpus progress event, total committed:7569754894, progress insts committed: 4715672, IPC: 0.235784
19612222092000: Event_144: system.switch_cpus progress event, total committed:7574419194, progress insts committed: 4664300, IPC: 0.233215
19622222092000: Event_144: system.switch_cpus progress event, total committed:7579148358, progress insts committed: 4729164, IPC: 0.236458
19632222092000: Event_144: system.switch_cpus progress event, total committed:7583746037, progress insts committed: 4597679, IPC: 0.229884
19642222092000: Event_144: system.switch_cpus progress event, total committed:7588428029, progress insts committed: 4681992, IPC: 000.2341
19652222092000: Event_144: system.switch_cpus progress event, total committed:7593191721, progress insts committed: 4763692, IPC: 0.238185
19662222092000: Event_144: system.switch_cpus progress event, total committed:7597771671, progress insts committed: 4579950, IPC: 0.228997
19672222092000: Event_144: system.switch_cpus progress event, total committed:7602551810, progress insts committed: 4780139, IPC: 0.239007
19682222092000: Event_144: system.switch_cpus progress event, total committed:7607413705, progress insts committed: 4861895, IPC: 0.243095
19692222092000: Event_144: system.switch_cpus progress event, total committed:7612015006, progress insts committed: 4601301, IPC: 0.230065
19702222092000: Event_144: system.switch_cpus progress event, total committed:7616798451, progress insts committed: 4783445, IPC: 0.239172
19712222092000: Event_144: system.switch_cpus progress event, total committed:7621548961, progress insts committed: 4750510, IPC: 0.237526
19722222092000: Event_144: system.switch_cpus progress event, total committed:7626333626, progress insts committed: 4784665, IPC: 0.239233
