
---------- Begin Simulation Statistics ----------
final_tick                               5648297281500                       # Number of ticks from beginning of simulation (restored from checkpoints and never reset)
host_inst_rate                                 449299                       # Simulator instruction rate (inst/s)
host_mem_usage                               16982320                       # Number of bytes of host memory used
host_op_rate                                   479584                       # Simulator op (including micro ops) rate (op/s)
host_seconds                                  4451.38                       # Real time elapsed on the host
host_tick_rate                               84912164                       # Simulator tick rate (ticks/s)
sim_freq                                 1000000000000                       # Frequency of simulated ticks
sim_insts                                  2000000023                       # Number of instructions simulated
sim_ops                                    2134811576                       # Number of ops (including micro ops) simulated
sim_seconds                                  0.377977                       # Number of seconds simulated
sim_ticks                                377976609000                       # Number of ticks simulated
system.cpu.Branches                                 5                       # Number of branches fetched
system.cpu.committedInsts                          19                       # Number of instructions committed
system.cpu.committedOps                            21                       # Number of ops (including micro ops) committed
system.cpu.dcache.MSHRs.leapFrogMisses              5                       # number of false blocks from MSHR
system.cpu.icache.MSHRs.leapFrogMisses              0                       # number of false blocks from MSHR
system.cpu.idle_fraction                            0                       # Percentage of idle cycles
system.cpu.not_idle_fraction                        1                       # Percentage of non-idle cycles
system.cpu.numCycles                               21                       # number of cpu cycles simulated
system.cpu.numWorkItemsCompleted                    0                       # number of work items this cpu completed
system.cpu.numWorkItemsStarted                      0                       # number of work items this cpu started
system.cpu.num_busy_cycles                         21                       # Number of busy cycles
system.cpu.num_cc_register_reads                   15                       # number of times the CC registers were read
system.cpu.num_cc_register_writes                  12                       # number of times the CC registers were written
system.cpu.num_conditional_control_insts            5                       # number of instructions that are conditional controls
system.cpu.num_fp_alu_accesses                      0                       # Number of float alu accesses
system.cpu.num_fp_insts                             0                       # number of float instructions
system.cpu.num_fp_register_reads                    0                       # number of times the floating registers were read
system.cpu.num_fp_register_writes                   0                       # number of times the floating registers were written
system.cpu.num_func_calls                           0                       # number of times a function call or return occured
system.cpu.num_idle_cycles                          0                       # Number of idle cycles
system.cpu.num_int_alu_accesses                    16                       # Number of integer alu accesses
system.cpu.num_int_insts                           16                       # number of integer instructions
system.cpu.num_int_register_reads                  18                       # number of times the integer registers were read
system.cpu.num_int_register_writes                 18                       # number of times the integer registers were written
system.cpu.num_load_insts                           4                       # Number of load instructions
system.cpu.num_mem_refs                             4                       # number of memory refs
system.cpu.num_store_insts                          0                       # Number of store instructions
system.cpu.num_vec_alu_accesses                     0                       # Number of vector alu accesses
system.cpu.num_vec_insts                            0                       # number of vector instructions
system.cpu.num_vec_register_reads                   0                       # number of times the vector registers were read
system.cpu.num_vec_register_writes                  0                       # number of times the vector registers were written
system.cpu.op_class::No_OpClass                     0      0.00%      0.00% # Class of executed instruction
system.cpu.op_class::IntAlu                        17     80.95%     80.95% # Class of executed instruction
system.cpu.op_class::IntMult                        0      0.00%     80.95% # Class of executed instruction
system.cpu.op_class::IntDiv                         0      0.00%     80.95% # Class of executed instruction
system.cpu.op_class::FloatAdd                       0      0.00%     80.95% # Class of executed instruction
system.cpu.op_class::FloatCmp                       0      0.00%     80.95% # Class of executed instruction
system.cpu.op_class::FloatCvt                       0      0.00%     80.95% # Class of executed instruction
system.cpu.op_class::FloatMult                      0      0.00%     80.95% # Class of executed instruction
system.cpu.op_class::FloatMultAcc                   0      0.00%     80.95% # Class of executed instruction
system.cpu.op_class::FloatDiv                       0      0.00%     80.95% # Class of executed instruction
system.cpu.op_class::FloatMisc                      0      0.00%     80.95% # Class of executed instruction
system.cpu.op_class::FloatSqrt                      0      0.00%     80.95% # Class of executed instruction
system.cpu.op_class::SimdAdd                        0      0.00%     80.95% # Class of executed instruction
system.cpu.op_class::SimdAddAcc                     0      0.00%     80.95% # Class of executed instruction
system.cpu.op_class::SimdAlu                        0      0.00%     80.95% # Class of executed instruction
system.cpu.op_class::SimdCmp                        0      0.00%     80.95% # Class of executed instruction
system.cpu.op_class::SimdCvt                        0      0.00%     80.95% # Class of executed instruction
system.cpu.op_class::SimdMisc                       0      0.00%     80.95% # Class of executed instruction
system.cpu.op_class::SimdMult                       0      0.00%     80.95% # Class of executed instruction
system.cpu.op_class::SimdMultAcc                    0      0.00%     80.95% # Class of executed instruction
system.cpu.op_class::SimdShift                      0      0.00%     80.95% # Class of executed instruction
system.cpu.op_class::SimdShiftAcc                   0      0.00%     80.95% # Class of executed instruction
system.cpu.op_class::SimdDiv                        0      0.00%     80.95% # Class of executed instruction
system.cpu.op_class::SimdSqrt                       0      0.00%     80.95% # Class of executed instruction
system.cpu.op_class::SimdFloatAdd                   0      0.00%     80.95% # Class of executed instruction
system.cpu.op_class::SimdFloatAlu                   0      0.00%     80.95% # Class of executed instruction
system.cpu.op_class::SimdFloatCmp                   0      0.00%     80.95% # Class of executed instruction
system.cpu.op_class::SimdFloatCvt                   0      0.00%     80.95% # Class of executed instruction
system.cpu.op_class::SimdFloatDiv                   0      0.00%     80.95% # Class of executed instruction
system.cpu.op_class::SimdFloatMisc                  0      0.00%     80.95% # Class of executed instruction
system.cpu.op_class::SimdFloatMult                  0      0.00%     80.95% # Class of executed instruction
system.cpu.op_class::SimdFloatMultAcc               0      0.00%     80.95% # Class of executed instruction
system.cpu.op_class::SimdFloatSqrt                  0      0.00%     80.95% # Class of executed instruction
system.cpu.op_class::SimdReduceAdd                  0      0.00%     80.95% # Class of executed instruction
system.cpu.op_class::SimdReduceAlu                  0      0.00%     80.95% # Class of executed instruction
system.cpu.op_class::SimdReduceCmp                  0      0.00%     80.95% # Class of executed instruction
system.cpu.op_class::SimdFloatReduceAdd             0      0.00%     80.95% # Class of executed instruction
system.cpu.op_class::SimdFloatReduceCmp             0      0.00%     80.95% # Class of executed instruction
system.cpu.op_class::SimdAes                        0      0.00%     80.95% # Class of executed instruction
system.cpu.op_class::SimdAesMix                     0      0.00%     80.95% # Class of executed instruction
system.cpu.op_class::SimdSha1Hash                   0      0.00%     80.95% # Class of executed instruction
system.cpu.op_class::SimdSha1Hash2                  0      0.00%     80.95% # Class of executed instruction
system.cpu.op_class::SimdSha256Hash                 0      0.00%     80.95% # Class of executed instruction
system.cpu.op_class::SimdSha256Hash2                0      0.00%     80.95% # Class of executed instruction
system.cpu.op_class::SimdShaSigma2                  0      0.00%     80.95% # Class of executed instruction
system.cpu.op_class::SimdShaSigma3                  0      0.00%     80.95% # Class of executed instruction
system.cpu.op_class::SimdPredAlu                    0      0.00%     80.95% # Class of executed instruction
system.cpu.op_class::MemRead                        4     19.05%    100.00% # Class of executed instruction
system.cpu.op_class::MemWrite                       0      0.00%    100.00% # Class of executed instruction
system.cpu.op_class::FloatMemRead                   0      0.00%    100.00% # Class of executed instruction
system.cpu.op_class::FloatMemWrite                  0      0.00%    100.00% # Class of executed instruction
system.cpu.op_class::IprAccess                      0      0.00%    100.00% # Class of executed instruction
system.cpu.op_class::InstPrefetch                   0      0.00%    100.00% # Class of executed instruction
system.cpu.op_class::total                         21                       # Class of executed instruction
system.cpu.workload.numSyscalls                     0                       # Number of system calls
system.l2.MSHRs.leapFrogMisses                      0                       # number of false blocks from MSHR
system.membus.snoop_filter.hit_multi_requests            0                       # Number of requests hitting in the snoop filter with multiple (>1) holders of the requested data.
system.membus.snoop_filter.hit_multi_snoops            0                       # Number of snoops hitting in the snoop filter with multiple (>1) holders of the requested data.
system.membus.snoop_filter.hit_single_requests            0                       # Number of requests hitting in the snoop filter with a single holder of the requested data.
system.membus.snoop_filter.hit_single_snoops            0                       # Number of snoops hitting in the snoop filter with a single holder of the requested data.
system.membus.snoop_filter.tot_requests          2378                       # Total number of requests made to the snoop filter.
system.membus.snoop_filter.tot_snoops               0                       # Total number of snoops made to the snoop filter.
system.switch_cpus.cc_regfile_reads         695471841                       # number of cc regfile reads
system.switch_cpus.cc_regfile_writes        709326822                       # number of cc regfile writes
system.switch_cpus.committedInsts          2000000004                       # Number of Instructions Simulated
system.switch_cpus.committedOps            2134811555                       # Number of Ops (including micro ops) Simulated
system.switch_cpus.cpi                       0.377977                       # CPI: Cycles Per Instruction
system.switch_cpus.cpi_total                 0.377977                       # CPI: Total CPI of All Threads
system.switch_cpus.idleCycles                  352277                       # Total number of cycles that the CPU has spent unscheduled due to idling
system.switch_cpus.iew.branchMispredicts     15966129                       # Number of branch mispredicts detected at execute
system.switch_cpus.iew.exec_branches        270227788                       # Number of branches executed
system.switch_cpus.iew.exec_nop              17100597                       # number of nop insts executed
system.switch_cpus.iew.exec_rate             3.064050                       # Inst execution rate
system.switch_cpus.iew.exec_refs            892202850                       # number of memory reference insts executed
system.switch_cpus.iew.exec_stores          376993956                       # Number of stores executed
system.switch_cpus.iew.exec_swp                     0                       # number of swp insts executed
system.switch_cpus.iew.iewBlockCycles        33329204                       # Number of cycles IEW is blocking
system.switch_cpus.iew.iewDispLoadInsts     547703004                       # Number of dispatched load instructions
system.switch_cpus.iew.iewDispNonSpecInsts           14                       # Number of dispatched non-speculative instructions
system.switch_cpus.iew.iewDispSquashedInsts      3714646                       # Number of squashed instructions skipped by dispatch
system.switch_cpus.iew.iewDispStoreInsts    401165247                       # Number of dispatched store instructions
system.switch_cpus.iew.iewDispatchedInsts   2472654153                       # Number of instructions dispatched to IQ
system.switch_cpus.iew.iewExecLoadInsts     515208894                       # Number of load instructions executed
system.switch_cpus.iew.iewExecSquashedInsts     31987905                       # Number of squashed instructions skipped in execute
system.switch_cpus.iew.iewExecutedInsts    2316278584                       # Number of executed instructions
system.switch_cpus.iew.iewIQFullEvents            420                       # Number of times the IQ has become full, causing a stall
system.switch_cpus.iew.iewIdleCycles                0                       # Number of cycles IEW is idle
system.switch_cpus.iew.iewLSQFullEvents          6156                       # Number of times the LSQ has become full, causing a stall
system.switch_cpus.iew.iewSquashCycles       14136593                       # Number of cycles IEW is squashing
system.switch_cpus.iew.iewUnblockCycles          6586                       # Number of cycles IEW is unblocking
system.switch_cpus.iew.memOrderViolationEvents       213858                       # Number of memory order violations
system.switch_cpus.iew.predictedNotTakenIncorrect      7721460                       # Number of branches that were predicted not taken incorrectly
system.switch_cpus.iew.predictedTakenIncorrect      8244669                       # Number of branches that were predicted taken incorrectly
system.switch_cpus.iew.wb_consumers        2251880441                       # num instructions consuming a value
system.switch_cpus.iew.wb_count            2287076110                       # cumulative count of insts written-back
system.switch_cpus.iew.wb_fanout             0.597576                       # average fanout of values written-back
system.switch_cpus.iew.wb_producers        1345670382                       # num instructions producing a value
system.switch_cpus.iew.wb_rate               3.025420                       # insts written-back per cycle
system.switch_cpus.iew.wb_sent             2296126084                       # cumulative count of insts sent to commit
system.switch_cpus.int_regfile_reads       2737416896                       # number of integer regfile reads
system.switch_cpus.int_regfile_writes      1510447898                       # number of integer regfile writes
system.switch_cpus.ipc                       2.645666                       # IPC: Instructions Per Cycle
system.switch_cpus.ipc_total                 2.645666                       # IPC: Total IPC of All Threads
system.switch_cpus.iq.FU_type_0::No_OpClass           13      0.00%      0.00% # Type of FU issued
system.switch_cpus.iq.FU_type_0::IntAlu    1309012735     55.74%     55.74% # Type of FU issued
system.switch_cpus.iq.FU_type_0::IntMult     18325273      0.78%     56.52% # Type of FU issued
system.switch_cpus.iq.FU_type_0::IntDiv          5193      0.00%     56.52% # Type of FU issued
system.switch_cpus.iq.FU_type_0::FloatAdd            0      0.00%     56.52% # Type of FU issued
system.switch_cpus.iq.FU_type_0::FloatCmp            0      0.00%     56.52% # Type of FU issued
system.switch_cpus.iq.FU_type_0::FloatCvt            0      0.00%     56.52% # Type of FU issued
system.switch_cpus.iq.FU_type_0::FloatMult            0      0.00%     56.52% # Type of FU issued
system.switch_cpus.iq.FU_type_0::FloatMultAcc            0      0.00%     56.52% # Type of FU issued
system.switch_cpus.iq.FU_type_0::FloatDiv            0      0.00%     56.52% # Type of FU issued
system.switch_cpus.iq.FU_type_0::FloatMisc       309220      0.01%     56.54% # Type of FU issued
system.switch_cpus.iq.FU_type_0::FloatSqrt            0      0.00%     56.54% # Type of FU issued
system.switch_cpus.iq.FU_type_0::SimdAdd     70134587      2.99%     59.52% # Type of FU issued
system.switch_cpus.iq.FU_type_0::SimdAddAcc            0      0.00%     59.52% # Type of FU issued
system.switch_cpus.iq.FU_type_0::SimdAlu     15155869      0.65%     60.17% # Type of FU issued
system.switch_cpus.iq.FU_type_0::SimdCmp       208788      0.01%     60.18% # Type of FU issued
system.switch_cpus.iq.FU_type_0::SimdCvt            0      0.00%     60.18% # Type of FU issued
system.switch_cpus.iq.FU_type_0::SimdMisc     26596154      1.13%     61.31% # Type of FU issued
system.switch_cpus.iq.FU_type_0::SimdMult            0      0.00%     61.31% # Type of FU issued
system.switch_cpus.iq.FU_type_0::SimdMultAcc            0      0.00%     61.31% # Type of FU issued
system.switch_cpus.iq.FU_type_0::SimdShift            0      0.00%     61.31% # Type of FU issued
system.switch_cpus.iq.FU_type_0::SimdShiftAcc            0      0.00%     61.31% # Type of FU issued
system.switch_cpus.iq.FU_type_0::SimdDiv            0      0.00%     61.31% # Type of FU issued
system.switch_cpus.iq.FU_type_0::SimdSqrt            0      0.00%     61.31% # Type of FU issued
system.switch_cpus.iq.FU_type_0::SimdFloatAdd            0      0.00%     61.31% # Type of FU issued
system.switch_cpus.iq.FU_type_0::SimdFloatAlu            0      0.00%     61.31% # Type of FU issued
system.switch_cpus.iq.FU_type_0::SimdFloatCmp            0      0.00%     61.31% # Type of FU issued
system.switch_cpus.iq.FU_type_0::SimdFloatCvt            0      0.00%     61.31% # Type of FU issued
system.switch_cpus.iq.FU_type_0::SimdFloatDiv            0      0.00%     61.31% # Type of FU issued
system.switch_cpus.iq.FU_type_0::SimdFloatMisc            0      0.00%     61.31% # Type of FU issued
system.switch_cpus.iq.FU_type_0::SimdFloatMult            0      0.00%     61.31% # Type of FU issued
system.switch_cpus.iq.FU_type_0::SimdFloatMultAcc            0      0.00%     61.31% # Type of FU issued
system.switch_cpus.iq.FU_type_0::SimdFloatSqrt            0      0.00%     61.31% # Type of FU issued
system.switch_cpus.iq.FU_type_0::SimdReduceAdd            0      0.00%     61.31% # Type of FU issued
system.switch_cpus.iq.FU_type_0::SimdReduceAlu            0      0.00%     61.31% # Type of FU issued
system.switch_cpus.iq.FU_type_0::SimdReduceCmp            0      0.00%     61.31% # Type of FU issued
system.switch_cpus.iq.FU_type_0::SimdFloatReduceAdd            0      0.00%     61.31% # Type of FU issued
system.switch_cpus.iq.FU_type_0::SimdFloatReduceCmp            0      0.00%     61.31% # Type of FU issued
system.switch_cpus.iq.FU_type_0::SimdAes            0      0.00%     61.31% # Type of FU issued
system.switch_cpus.iq.FU_type_0::SimdAesMix            0      0.00%     61.31% # Type of FU issued
system.switch_cpus.iq.FU_type_0::SimdSha1Hash            0      0.00%     61.31% # Type of FU issued
system.switch_cpus.iq.FU_type_0::SimdSha1Hash2            0      0.00%     61.31% # Type of FU issued
system.switch_cpus.iq.FU_type_0::SimdSha256Hash            0      0.00%     61.31% # Type of FU issued
system.switch_cpus.iq.FU_type_0::SimdSha256Hash2            0      0.00%     61.31% # Type of FU issued
system.switch_cpus.iq.FU_type_0::SimdShaSigma2            0      0.00%     61.31% # Type of FU issued
system.switch_cpus.iq.FU_type_0::SimdShaSigma3            0      0.00%     61.31% # Type of FU issued
system.switch_cpus.iq.FU_type_0::SimdPredAlu            0      0.00%     61.31% # Type of FU issued
system.switch_cpus.iq.FU_type_0::MemRead    527012088     22.44%     83.75% # Type of FU issued
system.switch_cpus.iq.FU_type_0::MemWrite    381506577     16.25%    100.00% # Type of FU issued
system.switch_cpus.iq.FU_type_0::FloatMemRead            0      0.00%    100.00% # Type of FU issued
system.switch_cpus.iq.FU_type_0::FloatMemWrite            0      0.00%    100.00% # Type of FU issued
system.switch_cpus.iq.FU_type_0::IprAccess            0      0.00%    100.00% # Type of FU issued
system.switch_cpus.iq.FU_type_0::InstPrefetch            0      0.00%    100.00% # Type of FU issued
system.switch_cpus.iq.FU_type_0::total     2348266497                       # Type of FU issued
system.switch_cpus.iq.fp_alu_accesses               0                       # Number of floating point alu accesses
system.switch_cpus.iq.fp_inst_queue_reads            0                       # Number of floating instruction queue reads
system.switch_cpus.iq.fp_inst_queue_wakeup_accesses            0                       # Number of floating instruction queue wakeup accesses
system.switch_cpus.iq.fp_inst_queue_writes            0                       # Number of floating instruction queue writes
system.switch_cpus.iq.fu_busy_cnt            58620477                       # FU busy when requested
system.switch_cpus.iq.fu_busy_rate           0.024963                       # FU busy rate (busy events/executed inst)
system.switch_cpus.iq.fu_full::No_OpClass            0      0.00%      0.00% # attempts to use FU when none available
system.switch_cpus.iq.fu_full::IntAlu        11196265     19.10%     19.10% # attempts to use FU when none available
system.switch_cpus.iq.fu_full::IntMult         170747      0.29%     19.39% # attempts to use FU when none available
system.switch_cpus.iq.fu_full::IntDiv               0      0.00%     19.39% # attempts to use FU when none available
system.switch_cpus.iq.fu_full::FloatAdd             0      0.00%     19.39% # attempts to use FU when none available
system.switch_cpus.iq.fu_full::FloatCmp             0      0.00%     19.39% # attempts to use FU when none available
system.switch_cpus.iq.fu_full::FloatCvt             0      0.00%     19.39% # attempts to use FU when none available
system.switch_cpus.iq.fu_full::FloatMult            0      0.00%     19.39% # attempts to use FU when none available
system.switch_cpus.iq.fu_full::FloatMultAcc            0      0.00%     19.39% # attempts to use FU when none available
system.switch_cpus.iq.fu_full::FloatDiv             0      0.00%     19.39% # attempts to use FU when none available
system.switch_cpus.iq.fu_full::FloatMisc          228      0.00%     19.39% # attempts to use FU when none available
system.switch_cpus.iq.fu_full::FloatSqrt            0      0.00%     19.39% # attempts to use FU when none available
system.switch_cpus.iq.fu_full::SimdAdd              0      0.00%     19.39% # attempts to use FU when none available
system.switch_cpus.iq.fu_full::SimdAddAcc            0      0.00%     19.39% # attempts to use FU when none available
system.switch_cpus.iq.fu_full::SimdAlu            810      0.00%     19.39% # attempts to use FU when none available
system.switch_cpus.iq.fu_full::SimdCmp            403      0.00%     19.39% # attempts to use FU when none available
system.switch_cpus.iq.fu_full::SimdCvt              0      0.00%     19.39% # attempts to use FU when none available
system.switch_cpus.iq.fu_full::SimdMisc           233      0.00%     19.39% # attempts to use FU when none available
system.switch_cpus.iq.fu_full::SimdMult             0      0.00%     19.39% # attempts to use FU when none available
system.switch_cpus.iq.fu_full::SimdMultAcc            0      0.00%     19.39% # attempts to use FU when none available
system.switch_cpus.iq.fu_full::SimdShift            0      0.00%     19.39% # attempts to use FU when none available
system.switch_cpus.iq.fu_full::SimdShiftAcc            0      0.00%     19.39% # attempts to use FU when none available
system.switch_cpus.iq.fu_full::SimdDiv              0      0.00%     19.39% # attempts to use FU when none available
system.switch_cpus.iq.fu_full::SimdSqrt             0      0.00%     19.39% # attempts to use FU when none available
system.switch_cpus.iq.fu_full::SimdFloatAdd            0      0.00%     19.39% # attempts to use FU when none available
system.switch_cpus.iq.fu_full::SimdFloatAlu            0      0.00%     19.39% # attempts to use FU when none available
system.switch_cpus.iq.fu_full::SimdFloatCmp            0      0.00%     19.39% # attempts to use FU when none available
system.switch_cpus.iq.fu_full::SimdFloatCvt            0      0.00%     19.39% # attempts to use FU when none available
system.switch_cpus.iq.fu_full::SimdFloatDiv            0      0.00%     19.39% # attempts to use FU when none available
system.switch_cpus.iq.fu_full::SimdFloatMisc            0      0.00%     19.39% # attempts to use FU when none available
system.switch_cpus.iq.fu_full::SimdFloatMult            0      0.00%     19.39% # attempts to use FU when none available
system.switch_cpus.iq.fu_full::SimdFloatMultAcc            0      0.00%     19.39% # attempts to use FU when none available
system.switch_cpus.iq.fu_full::SimdFloatSqrt            0      0.00%     19.39% # attempts to use FU when none available
system.switch_cpus.iq.fu_full::SimdReduceAdd            0      0.00%     19.39% # attempts to use FU when none available
system.switch_cpus.iq.fu_full::SimdReduceAlu            0      0.00%     19.39% # attempts to use FU when none available
system.switch_cpus.iq.fu_full::SimdReduceCmp            0      0.00%     19.39% # attempts to use FU when none available
system.switch_cpus.iq.fu_full::SimdFloatReduceAdd            0      0.00%     19.39% # attempts to use FU when none available
system.switch_cpus.iq.fu_full::SimdFloatReduceCmp            0      0.00%     19.39% # attempts to use FU when none available
system.switch_cpus.iq.fu_full::SimdAes              0      0.00%     19.39% # attempts to use FU when none available
system.switch_cpus.iq.fu_full::SimdAesMix            0      0.00%     19.39% # attempts to use FU when none available
system.switch_cpus.iq.fu_full::SimdSha1Hash            0      0.00%     19.39% # attempts to use FU when none available
system.switch_cpus.iq.fu_full::SimdSha1Hash2            0      0.00%     19.39% # attempts to use FU when none available
system.switch_cpus.iq.fu_full::SimdSha256Hash            0      0.00%     19.39% # attempts to use FU when none available
system.switch_cpus.iq.fu_full::SimdSha256Hash2            0      0.00%     19.39% # attempts to use FU when none available
system.switch_cpus.iq.fu_full::SimdShaSigma2            0      0.00%     19.39% # attempts to use FU when none available
system.switch_cpus.iq.fu_full::SimdShaSigma3            0      0.00%     19.39% # attempts to use FU when none available
system.switch_cpus.iq.fu_full::SimdPredAlu            0      0.00%     19.39% # attempts to use FU when none available
system.switch_cpus.iq.fu_full::MemRead       30337650     51.75%     71.15% # attempts to use FU when none available
system.switch_cpus.iq.fu_full::MemWrite      16914141     28.85%    100.00% # attempts to use FU when none available
system.switch_cpus.iq.fu_full::FloatMemRead            0      0.00%    100.00% # attempts to use FU when none available
system.switch_cpus.iq.fu_full::FloatMemWrite            0      0.00%    100.00% # attempts to use FU when none available
system.switch_cpus.iq.fu_full::IprAccess            0      0.00%    100.00% # attempts to use FU when none available
system.switch_cpus.iq.fu_full::InstPrefetch            0      0.00%    100.00% # attempts to use FU when none available
system.switch_cpus.iq.int_alu_accesses     2119748434                       # Number of integer alu accesses
system.switch_cpus.iq.int_inst_queue_reads   4951022168                       # Number of integer instruction queue reads
system.switch_cpus.iq.int_inst_queue_wakeup_accesses   2018713779                       # Number of integer instruction queue wakeup accesses
system.switch_cpus.iq.int_inst_queue_writes   2442159566                       # Number of integer instruction queue writes
system.switch_cpus.iq.iqInstsAdded         2455553542                       # Number of instructions added to the IQ (excludes non-spec)
system.switch_cpus.iq.iqInstsIssued        2348266497                       # Number of instructions issued
system.switch_cpus.iq.iqNonSpecInstsAdded           14                       # Number of non-speculative instructions added to the IQ
system.switch_cpus.iq.iqSquashedInstsExamined    320741967                       # Number of squashed instructions iterated over during squash; mainly for profiling
system.switch_cpus.iq.iqSquashedInstsIssued      3909997                       # Number of squashed instructions issued
system.switch_cpus.iq.iqSquashedNonSpecRemoved           14                       # Number of squashed non-spec instructions that were removed
system.switch_cpus.iq.iqSquashedOperandsExamined    303171119                       # Number of squashed operands that are examined and possibly removed from graph
system.switch_cpus.iq.issued_per_cycle::samples    755600923                       # Number of insts issued each cycle
system.switch_cpus.iq.issued_per_cycle::mean     3.107813                       # Number of insts issued each cycle
system.switch_cpus.iq.issued_per_cycle::stdev     2.498997                       # Number of insts issued each cycle
system.switch_cpus.iq.issued_per_cycle::underflows            0      0.00%      0.00% # Number of insts issued each cycle
system.switch_cpus.iq.issued_per_cycle::0    162725617     21.54%     21.54% # Number of insts issued each cycle
system.switch_cpus.iq.issued_per_cycle::1     92931732     12.30%     33.83% # Number of insts issued each cycle
system.switch_cpus.iq.issued_per_cycle::2     83371774     11.03%     44.87% # Number of insts issued each cycle
system.switch_cpus.iq.issued_per_cycle::3     97099513     12.85%     57.72% # Number of insts issued each cycle
system.switch_cpus.iq.issued_per_cycle::4     89513571     11.85%     69.57% # Number of insts issued each cycle
system.switch_cpus.iq.issued_per_cycle::5     74835732      9.90%     79.47% # Number of insts issued each cycle
system.switch_cpus.iq.issued_per_cycle::6     62129056      8.22%     87.69% # Number of insts issued each cycle
system.switch_cpus.iq.issued_per_cycle::7     51666026      6.84%     94.53% # Number of insts issued each cycle
system.switch_cpus.iq.issued_per_cycle::8     41327902      5.47%    100.00% # Number of insts issued each cycle
system.switch_cpus.iq.issued_per_cycle::overflows            0      0.00%    100.00% # Number of insts issued each cycle
system.switch_cpus.iq.issued_per_cycle::min_value            0                       # Number of insts issued each cycle
system.switch_cpus.iq.issued_per_cycle::max_value            8                       # Number of insts issued each cycle
system.switch_cpus.iq.issued_per_cycle::total    755600923                       # Number of insts issued each cycle
system.switch_cpus.iq.rate                   3.106365                       # Inst issue rate
system.switch_cpus.iq.vec_alu_accesses      287138527                       # Number of vector alu accesses
system.switch_cpus.iq.vec_inst_queue_reads    563642215                       # Number of vector instruction queue reads
system.switch_cpus.iq.vec_inst_queue_wakeup_accesses    268362331                       # Number of vector instruction queue wakeup accesses
system.switch_cpus.iq.vec_inst_queue_writes    334344275                       # Number of vector instruction queue writes
system.switch_cpus.memDep0.conflictingLoads     42945279                       # Number of conflicting loads.
system.switch_cpus.memDep0.conflictingStores     23960875                       # Number of conflicting stores.
system.switch_cpus.memDep0.insertedLoads    547703004                       # Number of loads inserted to the mem dependence unit.
system.switch_cpus.memDep0.insertedStores    401165247                       # Number of stores inserted to the mem dependence unit.
system.switch_cpus.misc_regfile_reads      6167878764                       # number of misc regfile reads
system.switch_cpus.misc_regfile_writes              1                       # number of misc regfile writes
system.switch_cpus.numCycles                755953200                       # number of cpu cycles simulated
system.switch_cpus.numWorkItemsCompleted            0                       # number of work items this cpu completed
system.switch_cpus.numWorkItemsStarted              0                       # number of work items this cpu started
system.switch_cpus.pred_regfile_reads           12107                       # number of predicate regfile reads
system.switch_cpus.pred_regfile_writes           4094                       # number of predicate regfile writes
system.switch_cpus.timesIdled                   56656                       # Number of times that the entire CPU went into an idle state and unscheduled itself
system.switch_cpus.vec_regfile_reads        230054650                       # number of vector regfile reads
system.switch_cpus.vec_regfile_writes       182976616                       # number of vector regfile writes
system.tol2bus.snoop_filter.hit_multi_requests            0                       # Number of requests hitting in the snoop filter with multiple (>1) holders of the requested data.
system.tol2bus.snoop_filter.hit_multi_snoops            0                       # Number of snoops hitting in the snoop filter with multiple (>1) holders of the requested data.
system.tol2bus.snoop_filter.hit_single_requests       114881                       # Number of requests hitting in the snoop filter with a single holder of the requested data.
system.tol2bus.snoop_filter.hit_single_snoops            0                       # Number of snoops hitting in the snoop filter with a single holder of the requested data.
system.tol2bus.snoop_filter.tot_requests       230550                       # Total number of requests made to the snoop filter.
system.tol2bus.snoop_filter.tot_snoops              0                       # Total number of snoops made to the snoop filter.
system.clk_domain.clock                          1000                       # Clock period in ticks
system.cpu.dcache.demand_hits::.cpu.data            1                       # number of demand (read+write) hits
system.cpu.dcache.demand_hits::.switch_cpus.data    874116033                       # number of demand (read+write) hits
system.cpu.dcache.demand_hits::total        874116034                       # number of demand (read+write) hits
system.cpu.dcache.overall_hits::.cpu.data            1                       # number of overall hits
system.cpu.dcache.overall_hits::.switch_cpus.data    874116033                       # number of overall hits
system.cpu.dcache.overall_hits::total       874116034                       # number of overall hits
system.cpu.dcache.demand_misses::.cpu.data            3                       # number of demand (read+write) misses
system.cpu.dcache.demand_misses::.switch_cpus.data          665                       # number of demand (read+write) misses
system.cpu.dcache.demand_misses::total            668                       # number of demand (read+write) misses
system.cpu.dcache.overall_misses::.cpu.data            3                       # number of overall misses
system.cpu.dcache.overall_misses::.switch_cpus.data          665                       # number of overall misses
system.cpu.dcache.overall_misses::total           668                       # number of overall misses
system.cpu.dcache.demand_miss_latency::.switch_cpus.data     44796486                       # number of demand (read+write) miss cycles
system.cpu.dcache.demand_miss_latency::total     44796486                       # number of demand (read+write) miss cycles
system.cpu.dcache.overall_miss_latency::.switch_cpus.data     44796486                       # number of overall miss cycles
system.cpu.dcache.overall_miss_latency::total     44796486                       # number of overall miss cycles
system.cpu.dcache.demand_accesses::.cpu.data            4                       # number of demand (read+write) accesses
system.cpu.dcache.demand_accesses::.switch_cpus.data    874116698                       # number of demand (read+write) accesses
system.cpu.dcache.demand_accesses::total    874116702                       # number of demand (read+write) accesses
system.cpu.dcache.overall_accesses::.cpu.data            4                       # number of overall (read+write) accesses
system.cpu.dcache.overall_accesses::.switch_cpus.data    874116698                       # number of overall (read+write) accesses
system.cpu.dcache.overall_accesses::total    874116702                       # number of overall (read+write) accesses
system.cpu.dcache.demand_miss_rate::.cpu.data     0.750000                       # miss rate for demand accesses
system.cpu.dcache.demand_miss_rate::.switch_cpus.data     0.000001                       # miss rate for demand accesses
system.cpu.dcache.demand_miss_rate::total     0.000001                       # miss rate for demand accesses
system.cpu.dcache.overall_miss_rate::.cpu.data     0.750000                       # miss rate for overall accesses
system.cpu.dcache.overall_miss_rate::.switch_cpus.data     0.000001                       # miss rate for overall accesses
system.cpu.dcache.overall_miss_rate::total     0.000001                       # miss rate for overall accesses
system.cpu.dcache.demand_avg_miss_latency::.switch_cpus.data 67363.136842                       # average overall miss latency
system.cpu.dcache.demand_avg_miss_latency::total 67060.607784                       # average overall miss latency
system.cpu.dcache.overall_avg_miss_latency::.switch_cpus.data 67363.136842                       # average overall miss latency
system.cpu.dcache.overall_avg_miss_latency::total 67060.607784                       # average overall miss latency
system.cpu.dcache.blocked_cycles::no_mshrs         1846                       # number of cycles access was blocked
system.cpu.dcache.blocked_cycles::no_targets          222                       # number of cycles access was blocked
system.cpu.dcache.blocked::no_mshrs                46                       # number of cycles access was blocked
system.cpu.dcache.blocked::no_targets               2                       # number of cycles access was blocked
system.cpu.dcache.avg_blocked_cycles::no_mshrs    40.130435                       # average number of cycles each access was blocked
system.cpu.dcache.avg_blocked_cycles::no_targets          111                       # average number of cycles each access was blocked
system.cpu.dcache.ghost_timestamp_misses            0                       # number of times timestamp policy causes a block to be inaccessible
system.cpu.dcache.ghost_commits                     0                       # number of cache lines moved from ghost to main
system.cpu.dcache.same_leapfrogs                    0                       # number of times leapfrogging occurs with a shared MSHR request
system.cpu.dcache.demand_mshr_hits::.switch_cpus.data          392                       # number of demand (read+write) MSHR hits
system.cpu.dcache.demand_mshr_hits::total          392                       # number of demand (read+write) MSHR hits
system.cpu.dcache.overall_mshr_hits::.switch_cpus.data          392                       # number of overall MSHR hits
system.cpu.dcache.overall_mshr_hits::total          392                       # number of overall MSHR hits
system.cpu.dcache.demand_mshr_misses::.switch_cpus.data          273                       # number of demand (read+write) MSHR misses
system.cpu.dcache.demand_mshr_misses::total          273                       # number of demand (read+write) MSHR misses
system.cpu.dcache.overall_mshr_misses::.switch_cpus.data          273                       # number of overall MSHR misses
system.cpu.dcache.overall_mshr_misses::total          273                       # number of overall MSHR misses
system.cpu.dcache.demand_mshr_miss_latency::.switch_cpus.data     20007999                       # number of demand (read+write) MSHR miss cycles
system.cpu.dcache.demand_mshr_miss_latency::total     20007999                       # number of demand (read+write) MSHR miss cycles
system.cpu.dcache.overall_mshr_miss_latency::.switch_cpus.data     20007999                       # number of overall MSHR miss cycles
system.cpu.dcache.overall_mshr_miss_latency::total     20007999                       # number of overall MSHR miss cycles
system.cpu.dcache.demand_mshr_miss_rate::.switch_cpus.data     0.000000                       # mshr miss rate for demand accesses
system.cpu.dcache.demand_mshr_miss_rate::total     0.000000                       # mshr miss rate for demand accesses
system.cpu.dcache.overall_mshr_miss_rate::.switch_cpus.data     0.000000                       # mshr miss rate for overall accesses
system.cpu.dcache.overall_mshr_miss_rate::total     0.000000                       # mshr miss rate for overall accesses
system.cpu.dcache.demand_avg_mshr_miss_latency::.switch_cpus.data 73289.373626                       # average overall mshr miss latency
system.cpu.dcache.demand_avg_mshr_miss_latency::total 73289.373626                       # average overall mshr miss latency
system.cpu.dcache.overall_avg_mshr_miss_latency::.switch_cpus.data 73289.373626                       # average overall mshr miss latency
system.cpu.dcache.overall_avg_mshr_miss_latency::total 73289.373626                       # average overall mshr miss latency
system.cpu.dcache.replacements                      0                       # number of replacements
system.cpu.dcache.ReadReq_hits::.cpu.data            1                       # number of ReadReq hits
system.cpu.dcache.ReadReq_hits::.switch_cpus.data    499360278                       # number of ReadReq hits
system.cpu.dcache.ReadReq_hits::total       499360279                       # number of ReadReq hits
system.cpu.dcache.ReadReq_misses::.cpu.data            3                       # number of ReadReq misses
system.cpu.dcache.ReadReq_misses::.switch_cpus.data          444                       # number of ReadReq misses
system.cpu.dcache.ReadReq_misses::total           447                       # number of ReadReq misses
system.cpu.dcache.ReadReq_miss_latency::.switch_cpus.data     30160500                       # number of ReadReq miss cycles
system.cpu.dcache.ReadReq_miss_latency::total     30160500                       # number of ReadReq miss cycles
system.cpu.dcache.ReadReq_accesses::.cpu.data            4                       # number of ReadReq accesses(hits+misses)
system.cpu.dcache.ReadReq_accesses::.switch_cpus.data    499360722                       # number of ReadReq accesses(hits+misses)
system.cpu.dcache.ReadReq_accesses::total    499360726                       # number of ReadReq accesses(hits+misses)
system.cpu.dcache.ReadReq_miss_rate::.cpu.data     0.750000                       # miss rate for ReadReq accesses
system.cpu.dcache.ReadReq_miss_rate::.switch_cpus.data     0.000001                       # miss rate for ReadReq accesses
system.cpu.dcache.ReadReq_miss_rate::total     0.000001                       # miss rate for ReadReq accesses
system.cpu.dcache.ReadReq_avg_miss_latency::.switch_cpus.data 67929.054054                       # average ReadReq miss latency
system.cpu.dcache.ReadReq_avg_miss_latency::total 67473.154362                       # average ReadReq miss latency
system.cpu.dcache.ReadReq_mshr_hits::.switch_cpus.data          216                       # number of ReadReq MSHR hits
system.cpu.dcache.ReadReq_mshr_hits::total          216                       # number of ReadReq MSHR hits
system.cpu.dcache.ReadReq_mshr_misses::.switch_cpus.data          228                       # number of ReadReq MSHR misses
system.cpu.dcache.ReadReq_mshr_misses::total          228                       # number of ReadReq MSHR misses
system.cpu.dcache.ReadReq_mshr_miss_latency::.switch_cpus.data     16667500                       # number of ReadReq MSHR miss cycles
system.cpu.dcache.ReadReq_mshr_miss_latency::total     16667500                       # number of ReadReq MSHR miss cycles
system.cpu.dcache.ReadReq_mshr_miss_rate::.switch_cpus.data     0.000000                       # mshr miss rate for ReadReq accesses
system.cpu.dcache.ReadReq_mshr_miss_rate::total     0.000000                       # mshr miss rate for ReadReq accesses
system.cpu.dcache.ReadReq_avg_mshr_miss_latency::.switch_cpus.data 73103.070175                       # average ReadReq mshr miss latency
system.cpu.dcache.ReadReq_avg_mshr_miss_latency::total 73103.070175                       # average ReadReq mshr miss latency
system.cpu.dcache.WriteReq_hits::.switch_cpus.data    374755755                       # number of WriteReq hits
system.cpu.dcache.WriteReq_hits::total      374755755                       # number of WriteReq hits
system.cpu.dcache.WriteReq_misses::.switch_cpus.data          221                       # number of WriteReq misses
system.cpu.dcache.WriteReq_misses::total          221                       # number of WriteReq misses
system.cpu.dcache.WriteReq_miss_latency::.switch_cpus.data     14635986                       # number of WriteReq miss cycles
system.cpu.dcache.WriteReq_miss_latency::total     14635986                       # number of WriteReq miss cycles
system.cpu.dcache.WriteReq_accesses::.switch_cpus.data    374755976                       # number of WriteReq accesses(hits+misses)
system.cpu.dcache.WriteReq_accesses::total    374755976                       # number of WriteReq accesses(hits+misses)
system.cpu.dcache.WriteReq_miss_rate::.switch_cpus.data     0.000001                       # miss rate for WriteReq accesses
system.cpu.dcache.WriteReq_miss_rate::total     0.000001                       # miss rate for WriteReq accesses
system.cpu.dcache.WriteReq_avg_miss_latency::.switch_cpus.data 66226.180995                       # average WriteReq miss latency
system.cpu.dcache.WriteReq_avg_miss_latency::total 66226.180995                       # average WriteReq miss latency
system.cpu.dcache.WriteReq_mshr_hits::.switch_cpus.data          176                       # number of WriteReq MSHR hits
system.cpu.dcache.WriteReq_mshr_hits::total          176                       # number of WriteReq MSHR hits
system.cpu.dcache.WriteReq_mshr_misses::.switch_cpus.data           45                       # number of WriteReq MSHR misses
system.cpu.dcache.WriteReq_mshr_misses::total           45                       # number of WriteReq MSHR misses
system.cpu.dcache.WriteReq_mshr_miss_latency::.switch_cpus.data      3340499                       # number of WriteReq MSHR miss cycles
system.cpu.dcache.WriteReq_mshr_miss_latency::total      3340499                       # number of WriteReq MSHR miss cycles
system.cpu.dcache.WriteReq_mshr_miss_rate::.switch_cpus.data     0.000000                       # mshr miss rate for WriteReq accesses
system.cpu.dcache.WriteReq_mshr_miss_rate::total     0.000000                       # mshr miss rate for WriteReq accesses
system.cpu.dcache.WriteReq_avg_mshr_miss_latency::.switch_cpus.data 74233.311111                       # average WriteReq mshr miss latency
system.cpu.dcache.WriteReq_avg_mshr_miss_latency::total 74233.311111                       # average WriteReq mshr miss latency
system.cpu.dcache.ghosttags.tagsinuse               0                       # Cycle average of tags in use
system.cpu.dcache.ghosttags.total_refs              0                       # Total number of references to valid blocks.
system.cpu.dcache.ghosttags.sampled_refs            0                       # Sample count of references to valid blocks.
system.cpu.dcache.ghosttags.avg_refs              nan                       # Average number of references to valid blocks.
system.cpu.dcache.ghosttags.warmup_cycle            0                       # Cycle when the warmup percentage was hit.
system.cpu.dcache.ghosttags.tag_accesses            0                       # Number of tag accesses
system.cpu.dcache.ghosttags.data_accesses            0                       # Number of data accesses
system.cpu.dcache.ghosttags.repl_invalid            0                       # Number of initial replacements
system.cpu.dcache.ghosttags.repl_valid_tag            0                       # Number of local replacements
system.cpu.dcache.ghosttags.repl_valid_data            0                       # Number of global replacements
system.cpu.dcache.ghosttags.power_state.pwrStateResidencyTicks::UNDEFINED 5648297281500                       # Cumulative time (in ticks) in various power states
system.cpu.dcache.power_state.pwrStateResidencyTicks::UNDEFINED 5648297281500                       # Cumulative time (in ticks) in various power states
system.cpu.dcache.tags.tagsinuse           247.088061                       # Cycle average of tags in use
system.cpu.dcache.tags.total_refs           874116310                       # Total number of references to valid blocks.
system.cpu.dcache.tags.sampled_refs               276                       # Sample count of references to valid blocks.
system.cpu.dcache.tags.avg_refs          3167088.079710                       # Average number of references to valid blocks.
system.cpu.dcache.tags.warmup_cycle      5270320673500                       # Cycle when the warmup percentage was hit.
system.cpu.dcache.tags.occ_blocks::.cpu.data     3.000000                       # Average occupied blocks per requestor
system.cpu.dcache.tags.occ_blocks::.switch_cpus.data   244.088061                       # Average occupied blocks per requestor
system.cpu.dcache.tags.occ_percent::.cpu.data     0.005859                       # Average percentage of cache occupancy
system.cpu.dcache.tags.occ_percent::.switch_cpus.data     0.476734                       # Average percentage of cache occupancy
system.cpu.dcache.tags.occ_percent::total     0.482594                       # Average percentage of cache occupancy
system.cpu.dcache.tags.occ_task_id_blocks::1024          276                       # Occupied blocks per task id
system.cpu.dcache.tags.age_task_id_blocks_1024::3            2                       # Occupied blocks per task id
system.cpu.dcache.tags.age_task_id_blocks_1024::4          274                       # Occupied blocks per task id
system.cpu.dcache.tags.occ_task_id_percent::1024     0.539062                       # Percentage of cache occupancy per task id
system.cpu.dcache.tags.tag_accesses        6992933892                       # Number of tag accesses
system.cpu.dcache.tags.data_accesses       6992933892                       # Number of data accesses
system.cpu.dcache.tags.repl_invalid                 0                       # Number of initial replacements
system.cpu.dcache.tags.repl_valid_tag               0                       # Number of local replacements
system.cpu.dcache.tags.repl_valid_data              0                       # Number of global replacements
system.cpu.dcache.tags.power_state.pwrStateResidencyTicks::UNDEFINED 5648297281500                       # Cumulative time (in ticks) in various power states
system.cpu.dtb.instHits                             0                       # ITB inst hits
system.cpu.dtb.instMisses                           0                       # ITB inst misses
system.cpu.dtb.readHits                             0                       # DTB read hits
system.cpu.dtb.readMisses                           0                       # DTB read misses
system.cpu.dtb.writeHits                            0                       # DTB write hits
system.cpu.dtb.writeMisses                          0                       # DTB write misses
system.cpu.dtb.inserts                              0                       # Number of times an entry is inserted into the TLB
system.cpu.dtb.flushTlb                             2                       # Number of times complete TLB was flushed
system.cpu.dtb.flushTlbMva                          0                       # Number of times TLB was flushed by MVA
system.cpu.dtb.flushTlbMvaAsid                      0                       # Number of times TLB was flushed by MVA & ASID
system.cpu.dtb.flushTlbAsid                         0                       # Number of times TLB was flushed by ASID
system.cpu.dtb.flushedEntries                       0                       # Number of entries that have been flushed from TLB
system.cpu.dtb.alignFaults                          0                       # Number of TLB faults due to alignment restrictions
system.cpu.dtb.prefetchFaults                       0                       # Number of TLB faults due to prefetch
system.cpu.dtb.domainFaults                         0                       # Number of TLB faults due to domain restrictions
system.cpu.dtb.permsFaults                          0                       # Number of TLB faults due to permissions restrictions
system.cpu.dtb.readAccesses                         0                       # DTB read accesses
system.cpu.dtb.writeAccesses                        0                       # DTB write accesses
system.cpu.dtb.instAccesses                         0                       # ITB inst accesses
system.cpu.dtb.hits                                 0                       # Total TLB (inst and data) hits
system.cpu.dtb.misses                               0                       # Total TLB (inst and data) misses
system.cpu.dtb.accesses                             0                       # Total TLB (inst and data) accesses
system.cpu.dtb.stage2_mmu.stage2_tlb.instHits            0                       # ITB inst hits
system.cpu.dtb.stage2_mmu.stage2_tlb.instMisses            0                       # ITB inst misses
system.cpu.dtb.stage2_mmu.stage2_tlb.readHits            0                       # DTB read hits
system.cpu.dtb.stage2_mmu.stage2_tlb.readMisses            0                       # DTB read misses
system.cpu.dtb.stage2_mmu.stage2_tlb.writeHits            0                       # DTB write hits
system.cpu.dtb.stage2_mmu.stage2_tlb.writeMisses            0                       # DTB write misses
system.cpu.dtb.stage2_mmu.stage2_tlb.inserts            0                       # Number of times an entry is inserted into the TLB
system.cpu.dtb.stage2_mmu.stage2_tlb.flushTlb            0                       # Number of times complete TLB was flushed
system.cpu.dtb.stage2_mmu.stage2_tlb.flushTlbMva            0                       # Number of times TLB was flushed by MVA
system.cpu.dtb.stage2_mmu.stage2_tlb.flushTlbMvaAsid            0                       # Number of times TLB was flushed by MVA & ASID
system.cpu.dtb.stage2_mmu.stage2_tlb.flushTlbAsid            0                       # Number of times TLB was flushed by ASID
system.cpu.dtb.stage2_mmu.stage2_tlb.flushedEntries            0                       # Number of entries that have been flushed from TLB
system.cpu.dtb.stage2_mmu.stage2_tlb.alignFaults            0                       # Number of TLB faults due to alignment restrictions
system.cpu.dtb.stage2_mmu.stage2_tlb.prefetchFaults            0                       # Number of TLB faults due to prefetch
system.cpu.dtb.stage2_mmu.stage2_tlb.domainFaults            0                       # Number of TLB faults due to domain restrictions
system.cpu.dtb.stage2_mmu.stage2_tlb.permsFaults            0                       # Number of TLB faults due to permissions restrictions
system.cpu.dtb.stage2_mmu.stage2_tlb.readAccesses            0                       # DTB read accesses
system.cpu.dtb.stage2_mmu.stage2_tlb.writeAccesses            0                       # DTB write accesses
system.cpu.dtb.stage2_mmu.stage2_tlb.instAccesses            0                       # ITB inst accesses
system.cpu.dtb.stage2_mmu.stage2_tlb.hits            0                       # Total TLB (inst and data) hits
system.cpu.dtb.stage2_mmu.stage2_tlb.misses            0                       # Total TLB (inst and data) misses
system.cpu.dtb.stage2_mmu.stage2_tlb.accesses            0                       # Total TLB (inst and data) accesses
system.cpu.dtb.stage2_mmu.stage2_tlb.walker.walks            0                       # Table walker walks requested
system.cpu.dtb.stage2_mmu.stage2_tlb.walker.requestOrigin_Requested::Data            0                       # Table walker requests started/completed, data/inst
system.cpu.dtb.stage2_mmu.stage2_tlb.walker.requestOrigin_Requested::Inst            0                       # Table walker requests started/completed, data/inst
system.cpu.dtb.stage2_mmu.stage2_tlb.walker.requestOrigin_Requested::total            0                       # Table walker requests started/completed, data/inst
system.cpu.dtb.stage2_mmu.stage2_tlb.walker.requestOrigin_Completed::Data            0                       # Table walker requests started/completed, data/inst
system.cpu.dtb.stage2_mmu.stage2_tlb.walker.requestOrigin_Completed::Inst            0                       # Table walker requests started/completed, data/inst
system.cpu.dtb.stage2_mmu.stage2_tlb.walker.requestOrigin_Completed::total            0                       # Table walker requests started/completed, data/inst
system.cpu.dtb.stage2_mmu.stage2_tlb.walker.requestOrigin::total            0                       # Table walker requests started/completed, data/inst
system.cpu.dtb.stage2_mmu.stage2_tlb.walker.power_state.pwrStateResidencyTicks::UNDEFINED 5648297281500                       # Cumulative time (in ticks) in various power states
system.cpu.dtb.walker.walks                         0                       # Table walker walks requested
system.cpu.dtb.walker.requestOrigin_Requested::Data            0                       # Table walker requests started/completed, data/inst
system.cpu.dtb.walker.requestOrigin_Requested::Inst            0                       # Table walker requests started/completed, data/inst
system.cpu.dtb.walker.requestOrigin_Requested::total            0                       # Table walker requests started/completed, data/inst
system.cpu.dtb.walker.requestOrigin_Completed::Data            0                       # Table walker requests started/completed, data/inst
system.cpu.dtb.walker.requestOrigin_Completed::Inst            0                       # Table walker requests started/completed, data/inst
system.cpu.dtb.walker.requestOrigin_Completed::total            0                       # Table walker requests started/completed, data/inst
system.cpu.dtb.walker.requestOrigin::total            0                       # Table walker requests started/completed, data/inst
system.cpu.dtb.walker.power_state.pwrStateResidencyTicks::UNDEFINED 5648297281500                       # Cumulative time (in ticks) in various power states
system.cpu.icache.demand_hits::.cpu.inst           16                       # number of demand (read+write) hits
system.cpu.icache.demand_hits::.switch_cpus.inst    253016898                       # number of demand (read+write) hits
system.cpu.icache.demand_hits::total        253016914                       # number of demand (read+write) hits
system.cpu.icache.overall_hits::.cpu.inst           16                       # number of overall hits
system.cpu.icache.overall_hits::.switch_cpus.inst    253016898                       # number of overall hits
system.cpu.icache.overall_hits::total       253016914                       # number of overall hits
system.cpu.icache.demand_misses::.cpu.inst            3                       # number of demand (read+write) misses
system.cpu.icache.demand_misses::.switch_cpus.inst       135258                       # number of demand (read+write) misses
system.cpu.icache.demand_misses::total         135261                       # number of demand (read+write) misses
system.cpu.icache.overall_misses::.cpu.inst            3                       # number of overall misses
system.cpu.icache.overall_misses::.switch_cpus.inst       135258                       # number of overall misses
system.cpu.icache.overall_misses::total        135261                       # number of overall misses
system.cpu.icache.demand_miss_latency::.switch_cpus.inst   1816103000                       # number of demand (read+write) miss cycles
system.cpu.icache.demand_miss_latency::total   1816103000                       # number of demand (read+write) miss cycles
system.cpu.icache.overall_miss_latency::.switch_cpus.inst   1816103000                       # number of overall miss cycles
system.cpu.icache.overall_miss_latency::total   1816103000                       # number of overall miss cycles
system.cpu.icache.demand_accesses::.cpu.inst           19                       # number of demand (read+write) accesses
system.cpu.icache.demand_accesses::.switch_cpus.inst    253152156                       # number of demand (read+write) accesses
system.cpu.icache.demand_accesses::total    253152175                       # number of demand (read+write) accesses
system.cpu.icache.overall_accesses::.cpu.inst           19                       # number of overall (read+write) accesses
system.cpu.icache.overall_accesses::.switch_cpus.inst    253152156                       # number of overall (read+write) accesses
system.cpu.icache.overall_accesses::total    253152175                       # number of overall (read+write) accesses
system.cpu.icache.demand_miss_rate::.cpu.inst     0.157895                       # miss rate for demand accesses
system.cpu.icache.demand_miss_rate::.switch_cpus.inst     0.000534                       # miss rate for demand accesses
system.cpu.icache.demand_miss_rate::total     0.000534                       # miss rate for demand accesses
system.cpu.icache.overall_miss_rate::.cpu.inst     0.157895                       # miss rate for overall accesses
system.cpu.icache.overall_miss_rate::.switch_cpus.inst     0.000534                       # miss rate for overall accesses
system.cpu.icache.overall_miss_rate::total     0.000534                       # miss rate for overall accesses
system.cpu.icache.demand_avg_miss_latency::.switch_cpus.inst 13426.954413                       # average overall miss latency
system.cpu.icache.demand_avg_miss_latency::total 13426.656612                       # average overall miss latency
system.cpu.icache.overall_avg_miss_latency::.switch_cpus.inst 13426.954413                       # average overall miss latency
system.cpu.icache.overall_avg_miss_latency::total 13426.656612                       # average overall miss latency
system.cpu.icache.blocked_cycles::no_mshrs           88                       # number of cycles access was blocked
system.cpu.icache.blocked_cycles::no_targets            0                       # number of cycles access was blocked
system.cpu.icache.blocked::no_mshrs                 5                       # number of cycles access was blocked
system.cpu.icache.blocked::no_targets               0                       # number of cycles access was blocked
system.cpu.icache.avg_blocked_cycles::no_mshrs    17.600000                       # average number of cycles each access was blocked
system.cpu.icache.avg_blocked_cycles::no_targets          nan                       # average number of cycles each access was blocked
system.cpu.icache.ghost_timestamp_misses            0                       # number of times timestamp policy causes a block to be inaccessible
system.cpu.icache.ghost_commits                     0                       # number of cache lines moved from ghost to main
system.cpu.icache.same_leapfrogs                    0                       # number of times leapfrogging occurs with a shared MSHR request
system.cpu.icache.writebacks::.writebacks       114881                       # number of writebacks
system.cpu.icache.writebacks::total            114881                       # number of writebacks
system.cpu.icache.demand_mshr_hits::.switch_cpus.inst        19868                       # number of demand (read+write) MSHR hits
system.cpu.icache.demand_mshr_hits::total        19868                       # number of demand (read+write) MSHR hits
system.cpu.icache.overall_mshr_hits::.switch_cpus.inst        19868                       # number of overall MSHR hits
system.cpu.icache.overall_mshr_hits::total        19868                       # number of overall MSHR hits
system.cpu.icache.demand_mshr_misses::.switch_cpus.inst       115390                       # number of demand (read+write) MSHR misses
system.cpu.icache.demand_mshr_misses::total       115390                       # number of demand (read+write) MSHR misses
system.cpu.icache.overall_mshr_misses::.switch_cpus.inst       115390                       # number of overall MSHR misses
system.cpu.icache.overall_mshr_misses::total       115390                       # number of overall MSHR misses
system.cpu.icache.demand_mshr_miss_latency::.switch_cpus.inst   1524714000                       # number of demand (read+write) MSHR miss cycles
system.cpu.icache.demand_mshr_miss_latency::total   1524714000                       # number of demand (read+write) MSHR miss cycles
system.cpu.icache.overall_mshr_miss_latency::.switch_cpus.inst   1524714000                       # number of overall MSHR miss cycles
system.cpu.icache.overall_mshr_miss_latency::total   1524714000                       # number of overall MSHR miss cycles
system.cpu.icache.demand_mshr_miss_rate::.switch_cpus.inst     0.000456                       # mshr miss rate for demand accesses
system.cpu.icache.demand_mshr_miss_rate::total     0.000456                       # mshr miss rate for demand accesses
system.cpu.icache.overall_mshr_miss_rate::.switch_cpus.inst     0.000456                       # mshr miss rate for overall accesses
system.cpu.icache.overall_mshr_miss_rate::total     0.000456                       # mshr miss rate for overall accesses
system.cpu.icache.demand_avg_mshr_miss_latency::.switch_cpus.inst 13213.571367                       # average overall mshr miss latency
system.cpu.icache.demand_avg_mshr_miss_latency::total 13213.571367                       # average overall mshr miss latency
system.cpu.icache.overall_avg_mshr_miss_latency::.switch_cpus.inst 13213.571367                       # average overall mshr miss latency
system.cpu.icache.overall_avg_mshr_miss_latency::total 13213.571367                       # average overall mshr miss latency
system.cpu.icache.replacements                 114881                       # number of replacements
system.cpu.icache.ReadReq_hits::.cpu.inst           16                       # number of ReadReq hits
system.cpu.icache.ReadReq_hits::.switch_cpus.inst    253016898                       # number of ReadReq hits
system.cpu.icache.ReadReq_hits::total       253016914                       # number of ReadReq hits
system.cpu.icache.ReadReq_misses::.cpu.inst            3                       # number of ReadReq misses
system.cpu.icache.ReadReq_misses::.switch_cpus.inst       135258                       # number of ReadReq misses
system.cpu.icache.ReadReq_misses::total        135261                       # number of ReadReq misses
system.cpu.icache.ReadReq_miss_latency::.switch_cpus.inst   1816103000                       # number of ReadReq miss cycles
system.cpu.icache.ReadReq_miss_latency::total   1816103000                       # number of ReadReq miss cycles
system.cpu.icache.ReadReq_accesses::.cpu.inst           19                       # number of ReadReq accesses(hits+misses)
system.cpu.icache.ReadReq_accesses::.switch_cpus.inst    253152156                       # number of ReadReq accesses(hits+misses)
system.cpu.icache.ReadReq_accesses::total    253152175                       # number of ReadReq accesses(hits+misses)
system.cpu.icache.ReadReq_miss_rate::.cpu.inst     0.157895                       # miss rate for ReadReq accesses
system.cpu.icache.ReadReq_miss_rate::.switch_cpus.inst     0.000534                       # miss rate for ReadReq accesses
system.cpu.icache.ReadReq_miss_rate::total     0.000534                       # miss rate for ReadReq accesses
system.cpu.icache.ReadReq_avg_miss_latency::.switch_cpus.inst 13426.954413                       # average ReadReq miss latency
system.cpu.icache.ReadReq_avg_miss_latency::total 13426.656612                       # average ReadReq miss latency
system.cpu.icache.ReadReq_mshr_hits::.switch_cpus.inst        19868                       # number of ReadReq MSHR hits
system.cpu.icache.ReadReq_mshr_hits::total        19868                       # number of ReadReq MSHR hits
system.cpu.icache.ReadReq_mshr_misses::.switch_cpus.inst       115390                       # number of ReadReq MSHR misses
system.cpu.icache.ReadReq_mshr_misses::total       115390                       # number of ReadReq MSHR misses
system.cpu.icache.ReadReq_mshr_miss_latency::.switch_cpus.inst   1524714000                       # number of ReadReq MSHR miss cycles
system.cpu.icache.ReadReq_mshr_miss_latency::total   1524714000                       # number of ReadReq MSHR miss cycles
system.cpu.icache.ReadReq_mshr_miss_rate::.switch_cpus.inst     0.000456                       # mshr miss rate for ReadReq accesses
system.cpu.icache.ReadReq_mshr_miss_rate::total     0.000456                       # mshr miss rate for ReadReq accesses
system.cpu.icache.ReadReq_avg_mshr_miss_latency::.switch_cpus.inst 13213.571367                       # average ReadReq mshr miss latency
system.cpu.icache.ReadReq_avg_mshr_miss_latency::total 13213.571367                       # average ReadReq mshr miss latency
system.cpu.icache.ghosttags.tagsinuse               0                       # Cycle average of tags in use
system.cpu.icache.ghosttags.total_refs              0                       # Total number of references to valid blocks.
system.cpu.icache.ghosttags.sampled_refs            0                       # Sample count of references to valid blocks.
system.cpu.icache.ghosttags.avg_refs              nan                       # Average number of references to valid blocks.
system.cpu.icache.ghosttags.warmup_cycle            0                       # Cycle when the warmup percentage was hit.
system.cpu.icache.ghosttags.tag_accesses            0                       # Number of tag accesses
system.cpu.icache.ghosttags.data_accesses            0                       # Number of data accesses
system.cpu.icache.ghosttags.repl_invalid            0                       # Number of initial replacements
system.cpu.icache.ghosttags.repl_valid_tag            0                       # Number of local replacements
system.cpu.icache.ghosttags.repl_valid_data            0                       # Number of global replacements
system.cpu.icache.ghosttags.power_state.pwrStateResidencyTicks::UNDEFINED 5648297281500                       # Cumulative time (in ticks) in various power states
system.cpu.icache.power_state.pwrStateResidencyTicks::UNDEFINED 5648297281500                       # Cumulative time (in ticks) in various power states
system.cpu.icache.tags.tagsinuse           506.824585                       # Cycle average of tags in use
system.cpu.icache.tags.total_refs           253132307                       # Total number of references to valid blocks.
system.cpu.icache.tags.sampled_refs            115393                       # Sample count of references to valid blocks.
system.cpu.icache.tags.avg_refs           2193.653922                       # Average number of references to valid blocks.
system.cpu.icache.tags.warmup_cycle      5270320673000                       # Cycle when the warmup percentage was hit.
system.cpu.icache.tags.occ_blocks::.cpu.inst     0.235288                       # Average occupied blocks per requestor
system.cpu.icache.tags.occ_blocks::.switch_cpus.inst   506.589298                       # Average occupied blocks per requestor
system.cpu.icache.tags.occ_percent::.cpu.inst     0.000460                       # Average percentage of cache occupancy
system.cpu.icache.tags.occ_percent::.switch_cpus.inst     0.989432                       # Average percentage of cache occupancy
system.cpu.icache.tags.occ_percent::total     0.989892                       # Average percentage of cache occupancy
system.cpu.icache.tags.occ_task_id_blocks::1024          512                       # Occupied blocks per task id
system.cpu.icache.tags.age_task_id_blocks_1024::3          512                       # Occupied blocks per task id
system.cpu.icache.tags.occ_task_id_percent::1024            1                       # Percentage of cache occupancy per task id
system.cpu.icache.tags.tag_accesses        2025332793                       # Number of tag accesses
system.cpu.icache.tags.data_accesses       2025332793                       # Number of data accesses
system.cpu.icache.tags.repl_invalid                 0                       # Number of initial replacements
system.cpu.icache.tags.repl_valid_tag               0                       # Number of local replacements
system.cpu.icache.tags.repl_valid_data              0                       # Number of global replacements
system.cpu.icache.tags.power_state.pwrStateResidencyTicks::UNDEFINED 5648297281500                       # Cumulative time (in ticks) in various power states
system.cpu.itb.instHits                             0                       # ITB inst hits
system.cpu.itb.instMisses                           0                       # ITB inst misses
system.cpu.itb.readHits                             0                       # DTB read hits
system.cpu.itb.readMisses                           0                       # DTB read misses
system.cpu.itb.writeHits                            0                       # DTB write hits
system.cpu.itb.writeMisses                          0                       # DTB write misses
system.cpu.itb.inserts                              0                       # Number of times an entry is inserted into the TLB
system.cpu.itb.flushTlb                             2                       # Number of times complete TLB was flushed
system.cpu.itb.flushTlbMva                          0                       # Number of times TLB was flushed by MVA
system.cpu.itb.flushTlbMvaAsid                      0                       # Number of times TLB was flushed by MVA & ASID
system.cpu.itb.flushTlbAsid                         0                       # Number of times TLB was flushed by ASID
system.cpu.itb.flushedEntries                       0                       # Number of entries that have been flushed from TLB
system.cpu.itb.alignFaults                          0                       # Number of TLB faults due to alignment restrictions
system.cpu.itb.prefetchFaults                       0                       # Number of TLB faults due to prefetch
system.cpu.itb.domainFaults                         0                       # Number of TLB faults due to domain restrictions
system.cpu.itb.permsFaults                          0                       # Number of TLB faults due to permissions restrictions
system.cpu.itb.readAccesses                         0                       # DTB read accesses
system.cpu.itb.writeAccesses                        0                       # DTB write accesses
system.cpu.itb.instAccesses                         0                       # ITB inst accesses
system.cpu.itb.hits                                 0                       # Total TLB (inst and data) hits
system.cpu.itb.misses                               0                       # Total TLB (inst and data) misses
system.cpu.itb.accesses                             0                       # Total TLB (inst and data) accesses
system.cpu.itb.stage2_mmu.stage2_tlb.instHits            0                       # ITB inst hits
system.cpu.itb.stage2_mmu.stage2_tlb.instMisses            0                       # ITB inst misses
system.cpu.itb.stage2_mmu.stage2_tlb.readHits            0                       # DTB read hits
system.cpu.itb.stage2_mmu.stage2_tlb.readMisses            0                       # DTB read misses
system.cpu.itb.stage2_mmu.stage2_tlb.writeHits            0                       # DTB write hits
system.cpu.itb.stage2_mmu.stage2_tlb.writeMisses            0                       # DTB write misses
system.cpu.itb.stage2_mmu.stage2_tlb.inserts            0                       # Number of times an entry is inserted into the TLB
system.cpu.itb.stage2_mmu.stage2_tlb.flushTlb            0                       # Number of times complete TLB was flushed
system.cpu.itb.stage2_mmu.stage2_tlb.flushTlbMva            0                       # Number of times TLB was flushed by MVA
system.cpu.itb.stage2_mmu.stage2_tlb.flushTlbMvaAsid            0                       # Number of times TLB was flushed by MVA & ASID
system.cpu.itb.stage2_mmu.stage2_tlb.flushTlbAsid            0                       # Number of times TLB was flushed by ASID
system.cpu.itb.stage2_mmu.stage2_tlb.flushedEntries            0                       # Number of entries that have been flushed from TLB
system.cpu.itb.stage2_mmu.stage2_tlb.alignFaults            0                       # Number of TLB faults due to alignment restrictions
system.cpu.itb.stage2_mmu.stage2_tlb.prefetchFaults            0                       # Number of TLB faults due to prefetch
system.cpu.itb.stage2_mmu.stage2_tlb.domainFaults            0                       # Number of TLB faults due to domain restrictions
system.cpu.itb.stage2_mmu.stage2_tlb.permsFaults            0                       # Number of TLB faults due to permissions restrictions
system.cpu.itb.stage2_mmu.stage2_tlb.readAccesses            0                       # DTB read accesses
system.cpu.itb.stage2_mmu.stage2_tlb.writeAccesses            0                       # DTB write accesses
system.cpu.itb.stage2_mmu.stage2_tlb.instAccesses            0                       # ITB inst accesses
system.cpu.itb.stage2_mmu.stage2_tlb.hits            0                       # Total TLB (inst and data) hits
system.cpu.itb.stage2_mmu.stage2_tlb.misses            0                       # Total TLB (inst and data) misses
[...]
system.switch_cpus.fetch.insts             2527597147                       # Number of instructions fetch has processed
system.switch_cpus.fetch.branches           312640058                       # Number of branches that fetch encountered
system.switch_cpus.fetch.predictedBranches    165600205                       # Number of branches that fetch has predicted taken
system.switch_cpus.fetch.cycles             477209584                       # Number of cycles fetch has run and was not squashing or blocked
system.switch_cpus.fetch.squashCycles        28306448                       # Number of cycles fetch has spent squashing
system.switch_cpus.fetch.miscStallCycles            8                       # Number of cycles fetch has spent waiting on interrupts,or bad addresses, or out of MSHRs
system.switch_cpus.fetch.pendingTrapStallCycles          118                       # Number of stall cycles due to pending traps
system.switch_cpus.fetch.icacheWaitRetryStallCycles           14                       # Number of stall cycles due to full MSHR
system.switch_cpus.fetch.cacheLines         253152156                       # Number of cache lines fetched
system.switch_cpus.fetch.icacheSquashes       4490228                       # Number of outstanding Icache misses that were squashed
system.switch_cpus.fetch.nisnDist::samples    755600923                       # Number of instructions fetched each cycle (Total)
system.switch_cpus.fetch.nisnDist::mean      3.569753                       # Number of instructions fetched each cycle (Total)
system.switch_cpus.fetch.nisnDist::stdev     3.492982                       # Number of instructions fetched each cycle (Total)
system.switch_cpus.fetch.nisnDist::underflows            0      0.00%      0.00% # Number of instructions fetched each cycle (Total)
system.switch_cpus.fetch.nisnDist::0        282762152     37.42%     37.42% # Number of instructions fetched each cycle (Total)
system.switch_cpus.fetch.nisnDist::1         54989083      7.28%     44.70% # Number of instructions fetched each cycle (Total)
system.switch_cpus.fetch.nisnDist::2         38148756      5.05%     49.75% # Number of instructions fetched each cycle (Total)
system.switch_cpus.fetch.nisnDist::3         46429452      6.14%     55.89% # Number of instructions fetched each cycle (Total)
system.switch_cpus.fetch.nisnDist::4         26304873      3.48%     59.37% # Number of instructions fetched each cycle (Total)
system.switch_cpus.fetch.nisnDist::5         20830027      2.76%     62.13% # Number of instructions fetched each cycle (Total)
system.switch_cpus.fetch.nisnDist::6         21932177      2.90%     65.03% # Number of instructions fetched each cycle (Total)
system.switch_cpus.fetch.nisnDist::7         27864156      3.69%     68.72% # Number of instructions fetched each cycle (Total)
system.switch_cpus.fetch.nisnDist::8        236340247     31.28%    100.00% # Number of instructions fetched each cycle (Total)
system.switch_cpus.fetch.nisnDist::overflows            0      0.00%    100.00% # Number of instructions fetched each cycle (Total)
system.switch_cpus.fetch.nisnDist::min_value            0                       # Number of instructions fetched each cycle (Total)
system.switch_cpus.fetch.nisnDist::max_value            8                       # Number of instructions fetched each cycle (Total)
system.switch_cpus.fetch.nisnDist::total    755600923                       # Number of instructions fetched each cycle (Total)
system.switch_cpus.fetch.branchRate          0.413571                       # Number of branch fetches per cycle
system.switch_cpus.fetch.rate                3.343589                       # Number of inst fetches per cycle
system.switch_cpus.itb.instHits                     0                       # ITB inst hits
system.switch_cpus.itb.instMisses                   0                       # ITB inst misses
system.switch_cpus.itb.readHits                     0                       # DTB read hits
system.switch_cpus.itb.readMisses                   0                       # DTB read misses
system.switch_cpus.itb.writeHits                    0                       # DTB write hits
system.switch_cpus.itb.writeMisses                  0                       # DTB write misses
system.switch_cpus.itb.inserts                      0                       # Number of times an entry is inserted into the TLB
system.switch_cpus.itb.flushTlb                     0                       # Number of times complete TLB was flushed
system.switch_cpus.itb.flushTlbMva                  0                       # Number of times TLB was flushed by MVA
system.switch_cpus.itb.flushTlbMvaAsid              0                       # Number of times TLB was flushed by MVA & ASID
system.switch_cpus.itb.flushTlbAsid                 0                       # Number of times TLB was flushed by ASID
system.switch_cpus.itb.flushedEntries               0                       # Number of entries that have been flushed from TLB
system.switch_cpus.itb.alignFaults                  0                       # Number of TLB faults due to alignment restrictions
system.switch_cpus.itb.prefetchFaults               0                       # Number of TLB faults due to prefetch
system.switch_cpus.itb.domainFaults                 0                       # Number of TLB faults due to domain restrictions
system.switch_cpus.itb.permsFaults                  0                       # Number of TLB faults due to permissions restrictions
system.switch_cpus.itb.readAccesses                 0                       # DTB read accesses
system.switch_cpus.itb.writeAccesses                0                       # DTB write accesses
system.switch_cpus.itb.instAccesses                 0                       # ITB inst accesses
system.switch_cpus.itb.hits                         0                       # Total TLB (inst and data) hits
system.switch_cpus.itb.misses                       0                       # Total TLB (inst and data) misses
system.switch_cpus.itb.accesses                     0                       # Total TLB (inst and data) accesses
system.switch_cpus.itb.stage2_mmu.stage2_tlb.instHits            0                       # ITB inst hits
system.switch_cpus.itb.stage2_mmu.stage2_tlb.instMisses            0                       # ITB inst misses
system.switch_cpus.itb.stage2_mmu.stage2_tlb.readHits            0                       # DTB read hits
system.switch_cpus.itb.stage2_mmu.stage2_tlb.readMisses            0                       # DTB read misses
system.switch_cpus.itb.stage2_mmu.stage2_tlb.writeHits            0                       # DTB write hits
system.switch_cpus.itb.stage2_mmu.stage2_tlb.writeMisses            0                       # DTB write misses
system.switch_cpus.itb.stage2_mmu.stage2_tlb.inserts            0                       # Number of times an entry is inserted into the TLB
system.switch_cpus.itb.stage2_mmu.stage2_tlb.flushTlb            0                       # Number of times complete TLB was flushed
system.switch_cpus.itb.stage2_mmu.stage2_tlb.flushTlbMva            0                       # Number of times TLB was flushed by MVA
system.switch_cpus.itb.stage2_mmu.stage2_tlb.flushTlbMvaAsid            0                       # Number of times TLB was flushed by MVA & ASID
system.switch_cpus.itb.stage2_mmu.stage2_tlb.flushTlbAsid            0                       # Number of times TLB was flushed by ASID
system.switch_cpus.itb.stage2_mmu.stage2_tlb.flushedEntries            0                       # Number of entries that have been flushed from TLB
system.switch_cpus.itb.stage2_mmu.stage2_tlb.alignFaults            0                       # Number of TLB faults due to alignment restrictions
system.switch_cpus.itb.stage2_mmu.stage2_tlb.prefetchFaults            0                       # Number of TLB faults due to prefetch
system.switch_cpus.itb.stage2_mmu.stage2_tlb.domainFaults            0                       # Number of TLB faults due to domain restrictions
system.switch_cpus.itb.stage2_mmu.stage2_tlb.permsFaults            0                       # Number of TLB faults due to permissions restrictions
system.switch_cpus.itb.stage2_mmu.stage2_tlb.readAccesses            0                       # DTB read accesses
system.switch_cpus.itb.stage2_mmu.stage2_tlb.writeAccesses            0                       # DTB write accesses
system.switch_cpus.itb.stage2_mmu.stage2_tlb.instAccesses            0                       # ITB inst accesses
system.switch_cpus.itb.stage2_mmu.stage2_tlb.hits            0                       # Total TLB (inst and data) hits
system.switch_cpus.itb.stage2_mmu.stage2_tlb.misses            0                       # Total TLB (inst and data) misses
system.switch_cpus.itb.stage2_mmu.stage2_tlb.accesses            0                       # Total TLB (inst and data) accesses
system.switch_cpus.itb.stage2_mmu.stage2_tlb.walker.walks            0                       # Table walker walks requested
system.switch_cpus.itb.stage2_mmu.stage2_tlb.walker.requestOrigin_Requested::Data            0                       # Table walker requests started/completed, data/inst
system.switch_cpus.itb.stage2_mmu.stage2_tlb.walker.requestOrigin_Requested::Inst            0                       # Table walker requests started/completed, data/inst
system.switch_cpus.itb.stage2_mmu.stage2_tlb.walker.requestOrigin_Requested::total            0                       # Table walker requests started/completed, data/inst
system.switch_cpus.itb.stage2_mmu.stage2_tlb.walker.requestOrigin_Completed::Data            0                       # Table walker requests started/completed, data/inst
system.switch_cpus.itb.stage2_mmu.stage2_tlb.walker.requestOrigin_Completed::Inst            0                       # Table walker requests started/completed, data/inst
system.switch_cpus.itb.stage2_mmu.stage2_tlb.walker.requestOrigin_Completed::total            0                       # Table walker requests started/completed, data/inst
system.switch_cpus.itb.stage2_mmu.stage2_tlb.walker.requestOrigin::total            0                       # Table walker requests started/completed, data/inst
system.switch_cpus.itb.stage2_mmu.stage2_tlb.walker.power_state.pwrStateResidencyTicks::UNDEFINED 5648297281500                       # Cumulative time (in ticks) in various power states
system.switch_cpus.itb.walker.walks                 0                       # Table walker walks requested
system.switch_cpus.itb.walker.requestOrigin_Requested::Data            0                       # Table walker requests started/completed, data/inst
system.switch_cpus.itb.walker.requestOrigin_Requested::Inst            0                       # Table walker requests started/completed, data/inst
system.switch_cpus.itb.walker.requestOrigin_Requested::total            0                       # Table walker requests started/completed, data/inst
system.switch_cpus.itb.walker.requestOrigin_Completed::Data            0                       # Table walker requests started/completed, data/inst
system.switch_cpus.itb.walker.requestOrigin_Completed::Inst            0                       # Table walker requests started/completed, data/inst
system.switch_cpus.itb.walker.requestOrigin_Completed::total            0                       # Table walker requests started/completed, data/inst
system.switch_cpus.itb.walker.requestOrigin::total            0                       # Table walker requests started/completed, data/inst
system.switch_cpus.itb.walker.power_state.pwrStateResidencyTicks::UNDEFINED 5648297281500                       # Cumulative time (in ticks) in various power states
system.switch_cpus.lsq0.forwLoads            27008940                       # Number of loads that had data forwarded from stores
system.switch_cpus.lsq0.squashedLoads        86674123                       # Number of loads squashed
system.switch_cpus.lsq0.ignoredResponses       140363                       # Number of memory responses ignored because the instruction is squashed
system.switch_cpus.lsq0.memOrderViolation       213858                       # Number of memory ordering violations
system.switch_cpus.lsq0.squashedStores       32129013                       # Number of stores squashed
system.switch_cpus.lsq0.rescheduledLoads       897311                       # Number of loads that were rescheduled
system.switch_cpus.lsq0.blockedByCache             45                       # Number of times an access to memory failed due to the cache being blocked
system.switch_cpus.power_state.pwrStateResidencyTicks::OFF 377976609000                       # Cumulative time (in ticks) in various power states
system.switch_cpus.rename.squashCycles       14136593                       # Number of cycles rename is squashing
system.switch_cpus.rename.idleCycles        253903265                       # Number of cycles rename is idle
system.switch_cpus.rename.blockCycles        33286814                       # Number of cycles rename is blocking
system.switch_cpus.rename.serializeStallCycles      2387450                       # count of cycles rename stalledfor serializing inst
system.switch_cpus.rename.runCycles         441918205                       # Number of cycles rename is running
system.switch_cpus.rename.unblockCycles       9968588                       # Number of cycles rename is unblocking
system.switch_cpus.rename.renamedInsts     2586789518                       # Number of instructions processed by rename
system.switch_cpus.rename.ROBFullEvents             4                       # Number of times rename has blocked due to ROB full
system.switch_cpus.rename.IQFullEvents         961296                       # Number of times rename has blocked due to IQ full
system.switch_cpus.rename.LQFullEvents        7616621                       # Number of times rename has blocked due to LQ full
system.switch_cpus.rename.SQFullEvents         674043                       # Number of times rename has blocked due to SQ full
system.switch_cpus.rename.renamedOperands   2694101219                       # Number of destination operands rename has renamed
system.switch_cpus.rename.lookups          4704575841                       # Number of register rename lookups that rename has made
system.switch_cpus.rename.intLookups       3026286865                       # Number of integer rename lookups
system.switch_cpus.rename.vecLookups        267270693                       # Number of vector rename lookups
system.switch_cpus.rename.vecPredLookups         8188                       # Number of vector predicate rename lookups
system.switch_cpus.rename.committedMaps    2201336904                       # Number of HB maps that are committed
system.switch_cpus.rename.undoneMaps        492764284                       # Number of HB maps that are undone due to squashing
system.switch_cpus.rename.serializing          155448                       # count of serializing insts renamed
system.switch_cpus.rename.tempSerializing            0                       # count of temporary serializing insts renamed
system.switch_cpus.rename.skidInsts          21309566                       # count of insts added to the skid buffer
system.switch_cpus.rob.reads               3046641433                       # The number of ROB reads
system.switch_cpus.rob.writes              4993137684                       # The number of ROB writes
system.switch_cpus.thread0.numInsts        2000000004                       # Number of Instructions committed
system.switch_cpus.thread0.numOps          2134811555                       # Number of Ops committed
system.switch_cpus.thread0.numMemRefs               0                       # Number of Memory References
system.tol2bus.trans_dist::ReadResp            115624                       # Transaction distribution
system.tol2bus.trans_dist::WritebackClean       114881                       # Transaction distribution
system.tol2bus.trans_dist::HardPFReq               53                       # Transaction distribution
system.tol2bus.trans_dist::ReadExReq               44                       # Transaction distribution
system.tol2bus.trans_dist::ReadExResp              44                       # Transaction distribution
system.tol2bus.trans_dist::ReadCleanReq        115393                       # Transaction distribution
system.tol2bus.trans_dist::ReadSharedReq          231                       # Transaction distribution
system.tol2bus.trans_dist::InvalidateReq            1                       # Transaction distribution
system.tol2bus.trans_dist::InvalidateResp            1                       # Transaction distribution
system.tol2bus.pkt_count_system.cpu.icache.mem_side_port::system.l2.cpu_side_port       345667                       # Packet count per connected requestor and responder (bytes)
system.tol2bus.pkt_count_system.cpu.dcache.mem_side_port::system.l2.cpu_side_port          552                       # Packet count per connected requestor and responder (bytes)
system.tol2bus.pkt_count::total                346219                       # Packet count per connected requestor and responder (bytes)
system.tol2bus.pkt_size_system.cpu.icache.mem_side_port::system.l2.cpu_side_port     14737536                       # Cumulative packet size per connected requestor and responder (bytes)
system.tol2bus.pkt_size_system.cpu.dcache.mem_side_port::system.l2.cpu_side_port        17600                       # Cumulative packet size per connected requestor and responder (bytes)
system.tol2bus.pkt_size::total               14755136                       # Cumulative packet size per connected requestor and responder (bytes)
system.tol2bus.snoops                              53                       # Total snoops (count)
system.tol2bus.snoopTraffic                         0                       # Total snoop traffic (bytes)
system.tol2bus.snoop_fanout::samples           115722                       # Request fanout histogram
system.tol2bus.snoop_fanout::mean                   0                       # Request fanout histogram
system.tol2bus.snoop_fanout::stdev                  0                       # Request fanout histogram
system.tol2bus.snoop_fanout::underflows             0      0.00%      0.00% # Request fanout histogram
system.tol2bus.snoop_fanout::0                 115722    100.00%    100.00% # Request fanout histogram
system.tol2bus.snoop_fanout::1                      0      0.00%    100.00% # Request fanout histogram
system.tol2bus.snoop_fanout::2                      0      0.00%    100.00% # Request fanout histogram
system.tol2bus.snoop_fanout::overflows              0      0.00%    100.00% # Request fanout histogram
system.tol2bus.snoop_fanout::min_value              0                       # Request fanout histogram
system.tol2bus.snoop_fanout::max_value              0                       # Request fanout histogram
system.tol2bus.snoop_fanout::total             115722                       # Request fanout histogram
system.tol2bus.power_state.pwrStateResidencyTicks::UNDEFINED 5648297281500                       # Cumulative time (in ticks) in various power states
system.tol2bus.reqLayer0.occupancy          230153000                       # Layer occupancy (ticks)
system.tol2bus.reqLayer0.utilization              0.1                       # Layer utilization (%)
system.tol2bus.respLayer0.occupancy         173085000                       # Layer occupancy (ticks)
system.tol2bus.respLayer0.utilization             0.0                       # Layer utilization (%)
system.tol2bus.respLayer1.occupancy            408999                       # Layer occupancy (ticks)
system.tol2bus.respLayer1.utilization             0.0                       # Layer utilization (%)
system.voltage_domain.voltage                       1                       # Voltage in Volts

---------- End Simulation Statistics   ----------
