
---------- Begin Simulation Statistics ----------
final_tick                               5360355606500                       # Number of ticks from beginning of simulation (restored from checkpoints and never reset)
host_inst_rate                                 528434                       # Simulator instruction rate (inst/s)
host_mem_usage                               20158960                       # Number of bytes of host memory used
host_op_rate                                   528458                       # Simulator op (including micro ops) rate (op/s)
host_seconds                                  3784.77                       # Real time elapsed on the host
host_tick_rate                               79495320                       # Simulator tick rate (ticks/s)
sim_freq                                 1000000000000                       # Frequency of simulated ticks
sim_insts                                  2000000021                       # Number of instructions simulated
sim_ops                                    2000092214                       # Number of ops (including micro ops) simulated
sim_seconds                                  0.300871                       # Number of seconds simulated
sim_ticks                                300871348500                       # Number of ticks simulated
system.cpu.Branches                                 1                       # Number of branches fetched
system.cpu.committedInsts                          20                       # Number of instructions committed
system.cpu.committedOps                            20                       # Number of ops (including micro ops) committed
system.cpu.dcache.MSHRs.leapFrogMisses           5157                       # number of false blocks from MSHR
system.cpu.icache.MSHRs.leapFrogMisses              0                       # number of false blocks from MSHR
system.cpu.idle_fraction                            0                       # Percentage of idle cycles
system.cpu.not_idle_fraction                        1                       # Percentage of non-idle cycles
system.cpu.numCycles                               20                       # number of cpu cycles simulated
system.cpu.numWorkItemsCompleted                    0                       # number of work items this cpu completed
system.cpu.numWorkItemsStarted                      0                       # number of work items this cpu started
system.cpu.num_busy_cycles                         20                       # Number of busy cycles
system.cpu.num_cc_register_reads                    3                       # number of times the CC registers were read
system.cpu.num_conditional_control_insts            1                       # number of instructions that are conditional controls
system.cpu.num_fp_alu_accesses                      0                       # Number of float alu accesses
system.cpu.num_fp_insts                             0                       # number of float instructions
system.cpu.num_fp_register_reads                    0                       # number of times the floating registers were read
system.cpu.num_fp_register_writes                   0                       # number of times the floating registers were written
system.cpu.num_func_calls                           0                       # number of times a function call or return occured
system.cpu.num_idle_cycles                          0                       # Number of idle cycles
system.cpu.num_int_alu_accesses                    11                       # Number of integer alu accesses
system.cpu.num_int_insts                           11                       # number of integer instructions
system.cpu.num_int_register_reads                  50                       # number of times the integer registers were read
system.cpu.num_int_register_writes                 14                       # number of times the integer registers were written
system.cpu.num_load_insts                           6                       # Number of load instructions
system.cpu.num_mem_refs                             6                       # number of memory refs
system.cpu.num_store_insts                          0                       # Number of store instructions
system.cpu.num_vec_alu_accesses                    13                       # Number of vector alu accesses
system.cpu.num_vec_insts                           13                       # number of vector instructions
system.cpu.num_vec_register_reads                  12                       # number of times the vector registers were read
system.cpu.num_vec_register_writes                 13                       # number of times the vector registers were written
system.cpu.op_class::No_OpClass                     0      0.00%      0.00% # Class of executed instruction
system.cpu.op_class::IntAlu                         5     25.00%     25.00% # Class of executed instruction
system.cpu.op_class::IntMult                        1      5.00%     30.00% # Class of executed instruction
system.cpu.op_class::IntDiv                         0      0.00%     30.00% # Class of executed instruction
system.cpu.op_class::FloatAdd                       0      0.00%     30.00% # Class of executed instruction
system.cpu.op_class::FloatCmp                       0      0.00%     30.00% # Class of executed instruction
system.cpu.op_class::FloatCvt                       0      0.00%     30.00% # Class of executed instruction
system.cpu.op_class::FloatMult                      4     20.00%     50.00% # Class of executed instruction
system.cpu.op_class::FloatMultAcc                   0      0.00%     50.00% # Class of executed instruction
system.cpu.op_class::FloatDiv                       0      0.00%     50.00% # Class of executed instruction
system.cpu.op_class::FloatMisc                      0      0.00%     50.00% # Class of executed instruction
system.cpu.op_class::FloatSqrt                      0      0.00%     50.00% # Class of executed instruction
system.cpu.op_class::SimdAdd                        0      0.00%     50.00% # Class of executed instruction
system.cpu.op_class::SimdAddAcc                     0      0.00%     50.00% # Class of executed instruction
system.cpu.op_class::SimdAlu                        0      0.00%     50.00% # Class of executed instruction
system.cpu.op_class::SimdCmp                        0      0.00%     50.00% # Class of executed instruction
system.cpu.op_class::SimdCvt                        4     20.00%     70.00% # Class of executed instruction
system.cpu.op_class::SimdMisc                       0      0.00%     70.00% # Class of executed instruction
system.cpu.op_class::SimdMult                       0      0.00%     70.00% # Class of executed instruction
system.cpu.op_class::SimdMultAcc                    0      0.00%     70.00% # Class of executed instruction
system.cpu.op_class::SimdShift                      0      0.00%     70.00% # Class of executed instruction
system.cpu.op_class::SimdShiftAcc                   0      0.00%     70.00% # Class of executed instruction
system.cpu.op_class::SimdDiv                        0      0.00%     70.00% # Class of executed instruction
system.cpu.op_class::SimdSqrt                       0      0.00%     70.00% # Class of executed instruction
system.cpu.op_class::SimdFloatAdd                   0      0.00%     70.00% # Class of executed instruction
system.cpu.op_class::SimdFloatAlu                   0      0.00%     70.00% # Class of executed instruction
system.cpu.op_class::SimdFloatCmp                   0      0.00%     70.00% # Class of executed instruction
system.cpu.op_class::SimdFloatCvt                   0      0.00%     70.00% # Class of executed instruction
system.cpu.op_class::SimdFloatDiv                   0      0.00%     70.00% # Class of executed instruction
system.cpu.op_class::SimdFloatMisc                  0      0.00%     70.00% # Class of executed instruction
system.cpu.op_class::SimdFloatMult                  0      0.00%     70.00% # Class of executed instruction
system.cpu.op_class::SimdFloatMultAcc               0      0.00%     70.00% # Class of executed instruction
system.cpu.op_class::SimdFloatSqrt                  0      0.00%     70.00% # Class of executed instruction
system.cpu.op_class::SimdReduceAdd                  0      0.00%     70.00% # Class of executed instruction
system.cpu.op_class::SimdReduceAlu                  0      0.00%     70.00% # Class of executed instruction
system.cpu.op_class::SimdReduceCmp                  0      0.00%     70.00% # Class of executed instruction
system.cpu.op_class::SimdFloatReduceAdd             0      0.00%     70.00% # Class of executed instruction
system.cpu.op_class::SimdFloatReduceCmp             0      0.00%     70.00% # Class of executed instruction
system.cpu.op_class::SimdAes                        0      0.00%     70.00% # Class of executed instruction
system.cpu.op_class::SimdAesMix                     0      0.00%     70.00% # Class of executed instruction
system.cpu.op_class::SimdSha1Hash                   0      0.00%     70.00% # Class of executed instruction
system.cpu.op_class::SimdSha1Hash2                  0      0.00%     70.00% # Class of executed instruction
system.cpu.op_class::SimdSha256Hash                 0      0.00%     70.00% # Class of executed instruction
system.cpu.op_class::SimdSha256Hash2                0      0.00%     70.00% # Class of executed instruction
system.cpu.op_class::SimdShaSigma2                  0      0.00%     70.00% # Class of executed instruction
system.cpu.op_class::SimdShaSigma3                  0      0.00%     70.00% # Class of executed instruction
system.cpu.op_class::SimdPredAlu                    0      0.00%     70.00% # Class of executed instruction
system.cpu.op_class::MemRead                        6     30.00%    100.00% # Class of executed instruction
system.cpu.op_class::MemWrite                       0      0.00%    100.00% # Class of executed instruction
system.cpu.op_class::FloatMemRead                   0      0.00%    100.00% # Class of executed instruction
system.cpu.op_class::FloatMemWrite                  0      0.00%    100.00% # Class of executed instruction
system.cpu.op_class::IprAccess                      0      0.00%    100.00% # Class of executed instruction
system.cpu.op_class::InstPrefetch                   0      0.00%    100.00% # Class of executed instruction
system.cpu.op_class::total                         20                       # Class of executed instruction
system.cpu.workload.numSyscalls                     0                       # Number of system calls
system.l2.MSHRs.leapFrogMisses                      0                       # number of false blocks from MSHR
system.membus.snoop_filter.hit_multi_requests            0                       # Number of requests hitting in the snoop filter with multiple (>1) holders of the requested data.
system.membus.snoop_filter.hit_multi_snoops            0                       # Number of snoops hitting in the snoop filter with multiple (>1) holders of the requested data.
system.membus.snoop_filter.hit_single_requests      1789203                       # Number of requests hitting in the snoop filter with a single holder of the requested data.
system.membus.snoop_filter.hit_single_snoops            0                       # Number of snoops hitting in the snoop filter with a single holder of the requested data.
system.membus.snoop_filter.tot_requests       3709476                       # Total number of requests made to the snoop filter.
system.membus.snoop_filter.tot_snoops               0                       # Total number of snoops made to the snoop filter.
system.switch_cpus.cc_regfile_reads         553581486                       # number of cc regfile reads
system.switch_cpus.cc_regfile_writes        645733429                       # number of cc regfile writes
system.switch_cpus.committedInsts          2000000001                       # Number of Instructions Simulated
system.switch_cpus.committedOps            2000092194                       # Number of Ops (including micro ops) Simulated
system.switch_cpus.cpi                       0.300871                       # CPI: Cycles Per Instruction
system.switch_cpus.cpi_total                 0.300871                       # CPI: Total CPI of All Threads
system.switch_cpus.idleCycles                   10149                       # Total number of cycles that the CPU has spent unscheduled due to idling
system.switch_cpus.iew.branchMispredicts         2313                       # Number of branch mispredicts detected at execute
system.switch_cpus.iew.exec_branches        210964284                       # Number of branches executed
system.switch_cpus.iew.exec_nop              13186276                       # number of nop insts executed
system.switch_cpus.iew.exec_rate             3.329552                       # Inst execution rate
system.switch_cpus.iew.exec_refs            395930065                       # number of memory reference insts executed
system.switch_cpus.iew.exec_stores           52813981                       # Number of stores executed
system.switch_cpus.iew.exec_swp                     0                       # number of swp insts executed
system.switch_cpus.iew.iewBlockCycles        29544062                       # Number of cycles IEW is blocking
system.switch_cpus.iew.iewDispLoadInsts     342821545                       # Number of dispatched load instructions
system.switch_cpus.iew.iewDispNonSpecInsts            0                       # Number of dispatched non-speculative instructions
system.switch_cpus.iew.iewDispSquashedInsts         3689                       # Number of squashed instructions skipped by dispatch
system.switch_cpus.iew.iewDispStoreInsts     52856588                       # Number of dispatched store instructions
system.switch_cpus.iew.iewDispatchedInsts   2017397311                       # Number of instructions dispatched to IQ
system.switch_cpus.iew.iewExecLoadInsts     343116084                       # Number of load instructions executed
system.switch_cpus.iew.iewExecSquashedInsts       189765                       # Number of squashed instructions skipped in execute
system.switch_cpus.iew.iewExecutedInsts    2003533615                       # Number of executed instructions
system.switch_cpus.iew.iewIQFullEvents          28529                       # Number of times the IQ has become full, causing a stall
system.switch_cpus.iew.iewIdleCycles                0                       # Number of cycles IEW is idle
system.switch_cpus.iew.iewLSQFullEvents         11695                       # Number of times the LSQ has become full, causing a stall
system.switch_cpus.iew.iewSquashCycles          29887                       # Number of cycles IEW is squashing
system.switch_cpus.iew.iewUnblockCycles        302057                       # Number of cycles IEW is unblocking
system.switch_cpus.iew.memOrderViolationEvents         2307                       # Number of memory order violations
system.switch_cpus.iew.predictedNotTakenIncorrect          746                       # Number of branches that were predicted not taken incorrectly
system.switch_cpus.iew.predictedTakenIncorrect         1567                       # Number of branches that were predicted taken incorrectly
system.switch_cpus.iew.wb_consumers        2315645520                       # num instructions consuming a value
system.switch_cpus.iew.wb_count            2003001971                       # cumulative count of insts written-back
system.switch_cpus.iew.wb_fanout             0.674410                       # average fanout of values written-back
system.switch_cpus.iew.wb_producers        1561693460                       # num instructions producing a value
system.switch_cpus.iew.wb_rate               3.328669                       # insts written-back per cycle
system.switch_cpus.iew.wb_sent             2003115739                       # cumulative count of insts sent to commit
system.switch_cpus.int_regfile_reads       1226623014                       # number of integer regfile reads
system.switch_cpus.int_regfile_writes       619837401                       # number of integer regfile writes
system.switch_cpus.ipc                       3.323680                       # IPC: Instructions Per Cycle
system.switch_cpus.ipc_total                 3.323680                       # IPC: Total IPC of All Threads
system.switch_cpus.iq.FU_type_0::No_OpClass            0      0.00%      0.00% # Type of FU issued
system.switch_cpus.iq.FU_type_0::IntAlu     659384007     32.91%     32.91% # Type of FU issued
system.switch_cpus.iq.FU_type_0::IntMult     52712067      2.63%     35.54% # Type of FU issued
system.switch_cpus.iq.FU_type_0::IntDiv             2      0.00%     35.54% # Type of FU issued
system.switch_cpus.iq.FU_type_0::FloatAdd    250167000     12.49%     48.02% # Type of FU issued
system.switch_cpus.iq.FU_type_0::FloatCmp     92198748      4.60%     52.63% # Type of FU issued
system.switch_cpus.iq.FU_type_0::FloatCvt        31254      0.00%     52.63% # Type of FU issued
system.switch_cpus.iq.FU_type_0::FloatMult    210747795     10.52%     63.14% # Type of FU issued
system.switch_cpus.iq.FU_type_0::FloatMultAcc            0      0.00%     63.14% # Type of FU issued
system.switch_cpus.iq.FU_type_0::FloatDiv         7200      0.00%     63.14% # Type of FU issued
system.switch_cpus.iq.FU_type_0::FloatMisc     52769325      2.63%     65.78% # Type of FU issued
system.switch_cpus.iq.FU_type_0::FloatSqrt            0      0.00%     65.78% # Type of FU issued
system.switch_cpus.iq.FU_type_0::SimdAdd            0      0.00%     65.78% # Type of FU issued
system.switch_cpus.iq.FU_type_0::SimdAddAcc            0      0.00%     65.78% # Type of FU issued
system.switch_cpus.iq.FU_type_0::SimdAlu            0      0.00%     65.78% # Type of FU issued
system.switch_cpus.iq.FU_type_0::SimdCmp            0      0.00%     65.78% # Type of FU issued
system.switch_cpus.iq.FU_type_0::SimdCvt    250243821     12.49%     78.27% # Type of FU issued
system.switch_cpus.iq.FU_type_0::SimdMisc     39512882      1.97%     80.24% # Type of FU issued
system.switch_cpus.iq.FU_type_0::SimdMult            0      0.00%     80.24% # Type of FU issued
system.switch_cpus.iq.FU_type_0::SimdMultAcc            0      0.00%     80.24% # Type of FU issued
system.switch_cpus.iq.FU_type_0::SimdShift            0      0.00%     80.24% # Type of FU issued
system.switch_cpus.iq.FU_type_0::SimdShiftAcc            0      0.00%     80.24% # Type of FU issued
system.switch_cpus.iq.FU_type_0::SimdDiv            0      0.00%     80.24% # Type of FU issued
system.switch_cpus.iq.FU_type_0::SimdSqrt            0      0.00%     80.24% # Type of FU issued
system.switch_cpus.iq.FU_type_0::SimdFloatAdd            0      0.00%     80.24% # Type of FU issued
system.switch_cpus.iq.FU_type_0::SimdFloatAlu            0      0.00%     80.24% # Type of FU issued
system.switch_cpus.iq.FU_type_0::SimdFloatCmp            0      0.00%     80.24% # Type of FU issued
system.switch_cpus.iq.FU_type_0::SimdFloatCvt            0      0.00%     80.24% # Type of FU issued
system.switch_cpus.iq.FU_type_0::SimdFloatDiv            0      0.00%     80.24% # Type of FU issued
system.switch_cpus.iq.FU_type_0::SimdFloatMisc            0      0.00%     80.24% # Type of FU issued
system.switch_cpus.iq.FU_type_0::SimdFloatMult            0      0.00%     80.24% # Type of FU issued
system.switch_cpus.iq.FU_type_0::SimdFloatMultAcc            0      0.00%     80.24% # Type of FU issued
system.switch_cpus.iq.FU_type_0::SimdFloatSqrt            0      0.00%     80.24% # Type of FU issued
system.switch_cpus.iq.FU_type_0::SimdReduceAdd            0      0.00%     80.24% # Type of FU issued
system.switch_cpus.iq.FU_type_0::SimdReduceAlu            0      0.00%     80.24% # Type of FU issued
system.switch_cpus.iq.FU_type_0::SimdReduceCmp            0      0.00%     80.24% # Type of FU issued
system.switch_cpus.iq.FU_type_0::SimdFloatReduceAdd            0      0.00%     80.24% # Type of FU issued
system.switch_cpus.iq.FU_type_0::SimdFloatReduceCmp            0      0.00%     80.24% # Type of FU issued
system.switch_cpus.iq.FU_type_0::SimdAes            0      0.00%     80.24% # Type of FU issued
system.switch_cpus.iq.FU_type_0::SimdAesMix            0      0.00%     80.24% # Type of FU issued
system.switch_cpus.iq.FU_type_0::SimdSha1Hash            0      0.00%     80.24% # Type of FU issued
system.switch_cpus.iq.FU_type_0::SimdSha1Hash2            0      0.00%     80.24% # Type of FU issued
system.switch_cpus.iq.FU_type_0::SimdSha256Hash            0      0.00%     80.24% # Type of FU issued
system.switch_cpus.iq.FU_type_0::SimdSha256Hash2            0      0.00%     80.24% # Type of FU issued
system.switch_cpus.iq.FU_type_0::SimdShaSigma2            0      0.00%     80.24% # Type of FU issued
system.switch_cpus.iq.FU_type_0::SimdShaSigma3            0      0.00%     80.24% # Type of FU issued
system.switch_cpus.iq.FU_type_0::SimdPredAlu            0      0.00%     80.24% # Type of FU issued
system.switch_cpus.iq.FU_type_0::MemRead    343130981     17.12%     97.36% # Type of FU issued
system.switch_cpus.iq.FU_type_0::MemWrite     52818309      2.64%    100.00% # Type of FU issued
system.switch_cpus.iq.FU_type_0::FloatMemRead            0      0.00%    100.00% # Type of FU issued
system.switch_cpus.iq.FU_type_0::FloatMemWrite            0      0.00%    100.00% # Type of FU issued
system.switch_cpus.iq.FU_type_0::IprAccess            0      0.00%    100.00% # Type of FU issued
system.switch_cpus.iq.FU_type_0::InstPrefetch            0      0.00%    100.00% # Type of FU issued
system.switch_cpus.iq.FU_type_0::total     2003723391                       # Type of FU issued
system.switch_cpus.iq.fp_alu_accesses               0                       # Number of floating point alu accesses
system.switch_cpus.iq.fp_inst_queue_reads            0                       # Number of floating instruction queue reads
system.switch_cpus.iq.fp_inst_queue_wakeup_accesses            0                       # Number of floating instruction queue wakeup accesses
system.switch_cpus.iq.fp_inst_queue_writes            0                       # Number of floating instruction queue writes
system.switch_cpus.iq.fu_busy_cnt            31990543                       # FU busy when requested
system.switch_cpus.iq.fu_busy_rate           0.015966                       # FU busy rate (busy events/executed inst)
system.switch_cpus.iq.fu_full::No_OpClass            0      0.00%      0.00% # attempts to use FU when none available
system.switch_cpus.iq.fu_full::IntAlu            3391      0.01%      0.01% # attempts to use FU when none available
system.switch_cpus.iq.fu_full::IntMult            354      0.00%      0.01% # attempts to use FU when none available
system.switch_cpus.iq.fu_full::IntDiv               0      0.00%      0.01% # attempts to use FU when none available
system.switch_cpus.iq.fu_full::FloatAdd      10369707     32.41%     32.43% # attempts to use FU when none available
system.switch_cpus.iq.fu_full::FloatCmp         83216      0.26%     32.69% # attempts to use FU when none available
system.switch_cpus.iq.fu_full::FloatCvt             3      0.00%     32.69% # attempts to use FU when none available
system.switch_cpus.iq.fu_full::FloatMult      9745660     30.46%     63.15% # attempts to use FU when none available
system.switch_cpus.iq.fu_full::FloatMultAcc            0      0.00%     63.15% # attempts to use FU when none available
system.switch_cpus.iq.fu_full::FloatDiv         12881      0.04%     63.19% # attempts to use FU when none available
system.switch_cpus.iq.fu_full::FloatMisc     11418663     35.69%     98.89% # attempts to use FU when none available
system.switch_cpus.iq.fu_full::FloatSqrt            0      0.00%     98.89% # attempts to use FU when none available
system.switch_cpus.iq.fu_full::SimdAdd              0      0.00%     98.89% # attempts to use FU when none available
system.switch_cpus.iq.fu_full::SimdAddAcc            0      0.00%     98.89% # attempts to use FU when none available
system.switch_cpus.iq.fu_full::SimdAlu              0      0.00%     98.89% # attempts to use FU when none available
system.switch_cpus.iq.fu_full::SimdCmp              0      0.00%     98.89% # attempts to use FU when none available
system.switch_cpus.iq.fu_full::SimdCvt         278096      0.87%     99.75% # attempts to use FU when none available
system.switch_cpus.iq.fu_full::SimdMisc             0      0.00%     99.75% # attempts to use FU when none available
system.switch_cpus.iq.fu_full::SimdMult             0      0.00%     99.75% # attempts to use FU when none available
system.switch_cpus.iq.fu_full::SimdMultAcc            0      0.00%     99.75% # attempts to use FU when none available
system.switch_cpus.iq.fu_full::SimdShift            0      0.00%     99.75% # attempts to use FU when none available
system.switch_cpus.iq.fu_full::SimdShiftAcc            0      0.00%     99.75% # attempts to use FU when none available
system.switch_cpus.iq.fu_full::SimdDiv              0      0.00%     99.75% # attempts to use FU when none available
system.switch_cpus.iq.fu_full::SimdSqrt             0      0.00%     99.75% # attempts to use FU when none available
system.switch_cpus.iq.fu_full::SimdFloatAdd            0      0.00%     99.75% # attempts to use FU when none available
system.switch_cpus.iq.fu_full::SimdFloatAlu            0      0.00%     99.75% # attempts to use FU when none available
system.switch_cpus.iq.fu_full::SimdFloatCmp            0      0.00%     99.75% # attempts to use FU when none available
system.switch_cpus.iq.fu_full::SimdFloatCvt            0      0.00%     99.75% # attempts to use FU when none available
system.switch_cpus.iq.fu_full::SimdFloatDiv            0      0.00%     99.75% # attempts to use FU when none available
system.switch_cpus.iq.fu_full::SimdFloatMisc            0      0.00%     99.75% # attempts to use FU when none available
system.switch_cpus.iq.fu_full::SimdFloatMult            0      0.00%     99.75% # attempts to use FU when none available
system.switch_cpus.iq.fu_full::SimdFloatMultAcc            0      0.00%     99.75% # attempts to use FU when none available
system.switch_cpus.iq.fu_full::SimdFloatSqrt            0      0.00%     99.75% # attempts to use FU when none available
system.switch_cpus.iq.fu_full::SimdReduceAdd            0      0.00%     99.75% # attempts to use FU when none available
system.switch_cpus.iq.fu_full::SimdReduceAlu            0      0.00%     99.75% # attempts to use FU when none available
system.switch_cpus.iq.fu_full::SimdReduceCmp            0      0.00%     99.75% # attempts to use FU when none available
system.switch_cpus.iq.fu_full::SimdFloatReduceAdd            0      0.00%     99.75% # attempts to use FU when none available
system.switch_cpus.iq.fu_full::SimdFloatReduceCmp            0      0.00%     99.75% # attempts to use FU when none available
system.switch_cpus.iq.fu_full::SimdAes              0      0.00%     99.75% # attempts to use FU when none available
system.switch_cpus.iq.fu_full::SimdAesMix            0      0.00%     99.75% # attempts to use FU when none available
system.switch_cpus.iq.fu_full::SimdSha1Hash            0      0.00%     99.75% # attempts to use FU when none available
system.switch_cpus.iq.fu_full::SimdSha1Hash2            0      0.00%     99.75% # attempts to use FU when none available
system.switch_cpus.iq.fu_full::SimdSha256Hash            0      0.00%     99.75% # attempts to use FU when none available
system.switch_cpus.iq.fu_full::SimdSha256Hash2            0      0.00%     99.75% # attempts to use FU when none available
system.switch_cpus.iq.fu_full::SimdShaSigma2            0      0.00%     99.75% # attempts to use FU when none available
system.switch_cpus.iq.fu_full::SimdShaSigma3            0      0.00%     99.75% # attempts to use FU when none available
system.switch_cpus.iq.fu_full::SimdPredAlu            0      0.00%     99.75% # attempts to use FU when none available
system.switch_cpus.iq.fu_full::MemRead          74160      0.23%     99.99% # attempts to use FU when none available
system.switch_cpus.iq.fu_full::MemWrite          4412      0.01%    100.00% # attempts to use FU when none available
system.switch_cpus.iq.fu_full::FloatMemRead            0      0.00%    100.00% # attempts to use FU when none available
system.switch_cpus.iq.fu_full::FloatMemWrite            0      0.00%    100.00% # attempts to use FU when none available
system.switch_cpus.iq.fu_full::IprAccess            0      0.00%    100.00% # attempts to use FU when none available
system.switch_cpus.iq.fu_full::InstPrefetch            0      0.00%    100.00% # attempts to use FU when none available
system.switch_cpus.iq.int_alu_accesses      844374641                       # Number of integer alu accesses
system.switch_cpus.iq.int_inst_queue_reads   2290430814                       # Number of integer instruction queue reads
system.switch_cpus.iq.int_inst_queue_wakeup_accesses    843953038                       # Number of integer instruction queue wakeup accesses
system.switch_cpus.iq.int_inst_queue_writes    846260100                       # Number of integer instruction queue writes
system.switch_cpus.iq.iqInstsAdded         2004211035                       # Number of instructions added to the IQ (excludes non-spec)
system.switch_cpus.iq.iqInstsIssued        2003723391                       # Number of instructions issued
system.switch_cpus.iq.iqSquashedInstsExamined      4118764                       # Number of squashed instructions iterated over during squash; mainly for profiling
system.switch_cpus.iq.iqSquashedInstsIssued         9202                       # Number of squashed instructions issued
system.switch_cpus.iq.iqSquashedOperandsExamined      3811727                       # Number of squashed operands that are examined and possibly removed from graph
system.switch_cpus.iq.issued_per_cycle::samples    601732528                       # Number of insts issued each cycle
system.switch_cpus.iq.issued_per_cycle::mean     3.329924                       # Number of insts issued each cycle
system.switch_cpus.iq.issued_per_cycle::stdev     2.194905                       # Number of insts issued each cycle
system.switch_cpus.iq.issued_per_cycle::underflows            0      0.00%      0.00% # Number of insts issued each cycle
system.switch_cpus.iq.issued_per_cycle::0     62029036     10.31%     10.31% # Number of insts issued each cycle
system.switch_cpus.iq.issued_per_cycle::1     89964818     14.95%     25.26% # Number of insts issued each cycle
system.switch_cpus.iq.issued_per_cycle::2     82720927     13.75%     39.01% # Number of insts issued each cycle
system.switch_cpus.iq.issued_per_cycle::3     76766289     12.76%     51.76% # Number of insts issued each cycle
system.switch_cpus.iq.issued_per_cycle::4    115712840     19.23%     70.99% # Number of insts issued each cycle
system.switch_cpus.iq.issued_per_cycle::5     77442257     12.87%     83.86% # Number of insts issued each cycle
system.switch_cpus.iq.issued_per_cycle::6     45009629      7.48%     91.34% # Number of insts issued each cycle
system.switch_cpus.iq.issued_per_cycle::7     18796423      3.12%     94.47% # Number of insts issued each cycle
system.switch_cpus.iq.issued_per_cycle::8     33290309      5.53%    100.00% # Number of insts issued each cycle
system.switch_cpus.iq.issued_per_cycle::overflows            0      0.00%    100.00% # Number of insts issued each cycle
system.switch_cpus.iq.issued_per_cycle::min_value            0                       # Number of insts issued each cycle
system.switch_cpus.iq.issued_per_cycle::max_value            8                       # Number of insts issued each cycle
system.switch_cpus.iq.issued_per_cycle::total    601732528                       # Number of insts issued each cycle
system.switch_cpus.iq.rate                   3.329868                       # Inst issue rate
system.switch_cpus.iq.vec_alu_accesses     1191339293                       # Number of vector alu accesses
system.switch_cpus.iq.vec_inst_queue_reads   2350748230                       # Number of vector instruction queue reads
system.switch_cpus.iq.vec_inst_queue_wakeup_accesses   1159048933                       # Number of vector instruction queue wakeup accesses
system.switch_cpus.iq.vec_inst_queue_writes   1162072006                       # Number of vector instruction queue writes
system.switch_cpus.memDep0.conflictingLoads        11120                       # Number of conflicting loads.
system.switch_cpus.memDep0.conflictingStores         6369                       # Number of conflicting stores.
system.switch_cpus.memDep0.insertedLoads    342821545                       # Number of loads inserted to the mem dependence unit.
system.switch_cpus.memDep0.insertedStores     52856588                       # Number of stores inserted to the mem dependence unit.
system.switch_cpus.misc_regfile_reads      7222367715                       # number of misc regfile reads
system.switch_cpus.misc_regfile_writes      802453325                       # number of misc regfile writes
system.switch_cpus.numCycles                601742677                       # number of cpu cycles simulated
system.switch_cpus.numWorkItemsCompleted            0                       # number of work items this cpu completed
system.switch_cpus.numWorkItemsStarted              0                       # number of work items this cpu started
system.switch_cpus.timesIdled                      92                       # Number of times that the entire CPU went into an idle state and unscheduled itself
system.switch_cpus.vec_regfile_reads       1395916758                       # number of vector regfile reads
system.switch_cpus.vec_regfile_writes      1027342943                       # number of vector regfile writes
system.tol2bus.snoop_filter.hit_multi_requests            0                       # Number of requests hitting in the snoop filter with multiple (>1) holders of the requested data.
system.tol2bus.snoop_filter.hit_multi_snoops            0                       # Number of snoops hitting in the snoop filter with multiple (>1) holders of the requested data.
system.tol2bus.snoop_filter.hit_single_requests      8276988                       # Number of requests hitting in the snoop filter with a single holder of the requested data.
system.tol2bus.snoop_filter.hit_single_snoops       282645                       # Number of snoops hitting in the snoop filter with a single holder of the requested data.
system.tol2bus.snoop_filter.tot_requests     16547765                       # Total number of requests made to the snoop filter.
system.tol2bus.snoop_filter.tot_snoops         282645                       # Total number of snoops made to the snoop filter.
system.clk_domain.clock                          1000                       # Clock period in ticks
system.cpu.dcache.demand_hits::.cpu.data            4                       # number of demand (read+write) hits
system.cpu.dcache.demand_hits::.switch_cpus.data    359200631                       # number of demand (read+write) hits
system.cpu.dcache.demand_hits::total        359200635                       # number of demand (read+write) hits
system.cpu.dcache.overall_hits::.cpu.data            4                       # number of overall hits
system.cpu.dcache.overall_hits::.switch_cpus.data    359200631                       # number of overall hits
system.cpu.dcache.overall_hits::total       359200635                       # number of overall hits
system.cpu.dcache.demand_misses::.cpu.data            2                       # number of demand (read+write) misses
system.cpu.dcache.demand_misses::.switch_cpus.data     36226121                       # number of demand (read+write) misses
system.cpu.dcache.demand_misses::total       36226123                       # number of demand (read+write) misses
system.cpu.dcache.overall_misses::.cpu.data            2                       # number of overall misses
system.cpu.dcache.overall_misses::.switch_cpus.data     36226121                       # number of overall misses
system.cpu.dcache.overall_misses::total      36226123                       # number of overall misses
system.cpu.dcache.demand_miss_latency::.switch_cpus.data 688437251072                       # number of demand (read+write) miss cycles
system.cpu.dcache.demand_miss_latency::total 688437251072                       # number of demand (read+write) miss cycles
system.cpu.dcache.overall_miss_latency::.switch_cpus.data 688437251072                       # number of overall miss cycles
system.cpu.dcache.overall_miss_latency::total 688437251072                       # number of overall miss cycles
system.cpu.dcache.demand_accesses::.cpu.data            6                       # number of demand (read+write) accesses
system.cpu.dcache.demand_accesses::.switch_cpus.data    395426752                       # number of demand (read+write) accesses
system.cpu.dcache.demand_accesses::total    395426758                       # number of demand (read+write) accesses
system.cpu.dcache.overall_accesses::.cpu.data            6                       # number of overall (read+write) accesses
system.cpu.dcache.overall_accesses::.switch_cpus.data    395426752                       # number of overall (read+write) accesses
system.cpu.dcache.overall_accesses::total    395426758                       # number of overall (read+write) accesses
system.cpu.dcache.demand_miss_rate::.cpu.data     0.333333                       # miss rate for demand accesses
system.cpu.dcache.demand_miss_rate::.switch_cpus.data     0.091613                       # miss rate for demand accesses
system.cpu.dcache.demand_miss_rate::total     0.091613                       # miss rate for demand accesses
system.cpu.dcache.overall_miss_rate::.cpu.data     0.333333                       # miss rate for overall accesses
system.cpu.dcache.overall_miss_rate::.switch_cpus.data     0.091613                       # miss rate for overall accesses
system.cpu.dcache.overall_miss_rate::total     0.091613                       # miss rate for overall accesses
system.cpu.dcache.demand_avg_miss_latency::.switch_cpus.data 19003.890896                       # average overall miss latency
system.cpu.dcache.demand_avg_miss_latency::total 19003.889847                       # average overall miss latency
system.cpu.dcache.overall_avg_miss_latency::.switch_cpus.data 19003.890896                       # average overall miss latency
system.cpu.dcache.overall_avg_miss_latency::total 19003.889847                       # average overall miss latency
system.cpu.dcache.blocked_cycles::no_mshrs       251945                       # number of cycles access was blocked
system.cpu.dcache.blocked_cycles::no_targets      1431355                       # number of cycles access was blocked
system.cpu.dcache.blocked::no_mshrs             26658                       # number of cycles access was blocked
system.cpu.dcache.blocked::no_targets           22445                       # number of cycles access was blocked
system.cpu.dcache.avg_blocked_cycles::no_mshrs     9.451009                       # average number of cycles each access was blocked
system.cpu.dcache.avg_blocked_cycles::no_targets    63.771664                       # average number of cycles each access was blocked
system.cpu.dcache.ghost_timestamp_misses          347                       # number of times timestamp policy causes a block to be inaccessible
system.cpu.dcache.ghost_commits               6617157                       # number of cache lines moved from ghost to main
system.cpu.dcache.same_leapfrogs                 1479                       # number of times leapfrogging occurs with a shared MSHR request
system.cpu.dcache.writebacks::.writebacks     14887224                       # number of writebacks
system.cpu.dcache.writebacks::total          14887224                       # number of writebacks
system.cpu.dcache.demand_mshr_hits::.switch_cpus.data     27949234                       # number of demand (read+write) MSHR hits
system.cpu.dcache.demand_mshr_hits::total     27949234                       # number of demand (read+write) MSHR hits
system.cpu.dcache.overall_mshr_hits::.switch_cpus.data     27949234                       # number of overall MSHR hits
system.cpu.dcache.overall_mshr_hits::total     27949234                       # number of overall MSHR hits
system.cpu.dcache.demand_mshr_misses::.switch_cpus.data      8276887                       # number of demand (read+write) MSHR misses
system.cpu.dcache.demand_mshr_misses::total      8276887                       # number of demand (read+write) MSHR misses
system.cpu.dcache.overall_mshr_misses::.switch_cpus.data      8276887                       # number of overall MSHR misses
system.cpu.dcache.overall_mshr_misses::total      8276887                       # number of overall MSHR misses
system.cpu.dcache.demand_mshr_miss_latency::.switch_cpus.data 139082403374                       # number of demand (read+write) MSHR miss cycles
system.cpu.dcache.demand_mshr_miss_latency::total 139082403374                       # number of demand (read+write) MSHR miss cycles
system.cpu.dcache.overall_mshr_miss_latency::.switch_cpus.data 139082403374                       # number of overall MSHR miss cycles
system.cpu.dcache.overall_mshr_miss_latency::total 139082403374                       # number of overall MSHR miss cycles
system.cpu.dcache.demand_mshr_miss_rate::.switch_cpus.data     0.020932                       # mshr miss rate for demand accesses
system.cpu.dcache.demand_mshr_miss_rate::total     0.020932                       # mshr miss rate for demand accesses
system.cpu.dcache.overall_mshr_miss_rate::.switch_cpus.data     0.020932                       # mshr miss rate for overall accesses
system.cpu.dcache.overall_mshr_miss_rate::total     0.020932                       # mshr miss rate for overall accesses
system.cpu.dcache.demand_avg_mshr_miss_latency::.switch_cpus.data 16803.709338                       # average overall mshr miss latency
system.cpu.dcache.demand_avg_mshr_miss_latency::total 16803.709338                       # average overall mshr miss latency
system.cpu.dcache.overall_avg_mshr_miss_latency::.switch_cpus.data 16803.709338                       # average overall mshr miss latency
system.cpu.dcache.overall_avg_mshr_miss_latency::total 16803.709338                       # average overall mshr miss latency
system.cpu.dcache.replacements                8270069                       # number of replacements
system.cpu.dcache.ReadReq_hits::.cpu.data            4                       # number of ReadReq hits
system.cpu.dcache.ReadReq_hits::.switch_cpus.data    315259286                       # number of ReadReq hits
system.cpu.dcache.ReadReq_hits::total       315259290                       # number of ReadReq hits
system.cpu.dcache.ReadReq_misses::.cpu.data            2                       # number of ReadReq misses
system.cpu.dcache.ReadReq_misses::.switch_cpus.data     27468832                       # number of ReadReq misses
system.cpu.dcache.ReadReq_misses::total      27468834                       # number of ReadReq misses
system.cpu.dcache.ReadReq_miss_latency::.switch_cpus.data 545698456000                       # number of ReadReq miss cycles
system.cpu.dcache.ReadReq_miss_latency::total 545698456000                       # number of ReadReq miss cycles
system.cpu.dcache.ReadReq_accesses::.cpu.data            6                       # number of ReadReq accesses(hits+misses)
system.cpu.dcache.ReadReq_accesses::.switch_cpus.data    342728118                       # number of ReadReq accesses(hits+misses)
system.cpu.dcache.ReadReq_accesses::total    342728124                       # number of ReadReq accesses(hits+misses)
system.cpu.dcache.ReadReq_miss_rate::.cpu.data     0.333333                       # miss rate for ReadReq accesses
system.cpu.dcache.ReadReq_miss_rate::.switch_cpus.data     0.080148                       # miss rate for ReadReq accesses
system.cpu.dcache.ReadReq_miss_rate::total     0.080148                       # miss rate for ReadReq accesses
system.cpu.dcache.ReadReq_avg_miss_latency::.switch_cpus.data 19866.096090                       # average ReadReq miss latency
system.cpu.dcache.ReadReq_avg_miss_latency::total 19866.094644                       # average ReadReq miss latency
system.cpu.dcache.ReadReq_mshr_hits::.switch_cpus.data     20850662                       # number of ReadReq MSHR hits
system.cpu.dcache.ReadReq_mshr_hits::total     20850662                       # number of ReadReq MSHR hits
system.cpu.dcache.ReadReq_mshr_misses::.switch_cpus.data      6618170                       # number of ReadReq MSHR misses
system.cpu.dcache.ReadReq_mshr_misses::total      6618170                       # number of ReadReq MSHR misses
system.cpu.dcache.ReadReq_mshr_miss_latency::.switch_cpus.data 112956279000                       # number of ReadReq MSHR miss cycles
system.cpu.dcache.ReadReq_mshr_miss_latency::total 112956279000                       # number of ReadReq MSHR miss cycles
system.cpu.dcache.ReadReq_mshr_miss_rate::.switch_cpus.data     0.019310                       # mshr miss rate for ReadReq accesses
system.cpu.dcache.ReadReq_mshr_miss_rate::total     0.019310                       # mshr miss rate for ReadReq accesses
system.cpu.dcache.ReadReq_avg_mshr_miss_latency::.switch_cpus.data 17067.600107                       # average ReadReq mshr miss latency
system.cpu.dcache.ReadReq_avg_mshr_miss_latency::total 17067.600107                       # average ReadReq mshr miss latency
system.cpu.dcache.WriteReq_hits::.switch_cpus.data     43941345                       # number of WriteReq hits
system.cpu.dcache.WriteReq_hits::total       43941345                       # number of WriteReq hits
system.cpu.dcache.WriteReq_misses::.switch_cpus.data      8757289                       # number of WriteReq misses
system.cpu.dcache.WriteReq_misses::total      8757289                       # number of WriteReq misses
system.cpu.dcache.WriteReq_miss_latency::.switch_cpus.data 142738795072                       # number of WriteReq miss cycles
system.cpu.dcache.WriteReq_miss_latency::total 142738795072                       # number of WriteReq miss cycles
system.cpu.dcache.WriteReq_accesses::.switch_cpus.data     52698634                       # number of WriteReq accesses(hits+misses)
system.cpu.dcache.WriteReq_accesses::total     52698634                       # number of WriteReq accesses(hits+misses)
system.cpu.dcache.WriteReq_miss_rate::.switch_cpus.data     0.166177                       # miss rate for WriteReq accesses
system.cpu.dcache.WriteReq_miss_rate::total     0.166177                       # miss rate for WriteReq accesses
system.cpu.dcache.WriteReq_avg_miss_latency::.switch_cpus.data 16299.427262                       # average WriteReq miss latency
system.cpu.dcache.WriteReq_avg_miss_latency::total 16299.427262                       # average WriteReq miss latency
system.cpu.dcache.WriteReq_mshr_hits::.switch_cpus.data      7098572                       # number of WriteReq MSHR hits
system.cpu.dcache.WriteReq_mshr_hits::total      7098572                       # number of WriteReq MSHR hits
system.cpu.dcache.WriteReq_mshr_misses::.switch_cpus.data      1658717                       # number of WriteReq MSHR misses
system.cpu.dcache.WriteReq_mshr_misses::total      1658717                       # number of WriteReq MSHR misses
system.cpu.dcache.WriteReq_mshr_miss_latency::.switch_cpus.data  26126124374                       # number of WriteReq MSHR miss cycles
system.cpu.dcache.WriteReq_mshr_miss_latency::total  26126124374                       # number of WriteReq MSHR miss cycles
system.cpu.dcache.WriteReq_mshr_miss_rate::.switch_cpus.data     0.031476                       # mshr miss rate for WriteReq accesses
system.cpu.dcache.WriteReq_mshr_miss_rate::total     0.031476                       # mshr miss rate for WriteReq accesses
system.cpu.dcache.WriteReq_avg_mshr_miss_latency::.switch_cpus.data 15750.802804                       # average WriteReq mshr miss latency
system.cpu.dcache.WriteReq_avg_mshr_miss_latency::total 15750.802804                       # average WriteReq mshr miss latency
system.cpu.dcache.ghosttags.tagsinuse    -4137149.682373                       # Cycle average of tags in use
system.cpu.dcache.ghosttags.total_refs              0                       # Total number of references to valid blocks.
system.cpu.dcache.ghosttags.sampled_refs            0                       # Sample count of references to valid blocks.
system.cpu.dcache.ghosttags.avg_refs              nan                       # Average number of references to valid blocks.
system.cpu.dcache.ghosttags.warmup_cycle 5059484569500                       # Cycle when the warmup percentage was hit.
system.cpu.dcache.ghosttags.occ_blocks::.switch_cpus.data 3310846.770799                       # Average occupied blocks per requestor
system.cpu.dcache.ghosttags.occ_percent::.switch_cpus.data 103463.961587                       # Average percentage of cache occupancy
system.cpu.dcache.ghosttags.occ_percent::total 103463.961587                       # Average percentage of cache occupancy
system.cpu.dcache.ghosttags.tag_accesses     79103857                       # Number of tag accesses
system.cpu.dcache.ghosttags.data_accesses     79103857                       # Number of data accesses
system.cpu.dcache.ghosttags.repl_invalid            0                       # Number of initial replacements
system.cpu.dcache.ghosttags.repl_valid_tag            0                       # Number of local replacements
system.cpu.dcache.ghosttags.repl_valid_data            0                       # Number of global replacements
system.cpu.dcache.ghosttags.power_state.pwrStateResidencyTicks::UNDEFINED 5360355606500                       # Cumulative time (in ticks) in various power states
system.cpu.dcache.power_state.pwrStateResidencyTicks::UNDEFINED 5360355606500                       # Cumulative time (in ticks) in various power states
system.cpu.dcache.tags.tagsinuse         -3310158.000155                       # Cycle average of tags in use
system.cpu.dcache.tags.total_refs           374106659                       # Total number of references to valid blocks.
system.cpu.dcache.tags.sampled_refs          14887813                       # Sample count of references to valid blocks.
system.cpu.dcache.tags.avg_refs             25.128382                       # Average number of references to valid blocks.
system.cpu.dcache.tags.warmup_cycle      5059484259000                       # Cycle when the warmup percentage was hit.
system.cpu.dcache.tags.occ_blocks::.cpu.data     1.000083                       # Average occupied blocks per requestor
system.cpu.dcache.tags.occ_blocks::.switch_cpus.data -3310159.000239                       # Average occupied blocks per requestor
system.cpu.dcache.tags.occ_percent::.cpu.data     0.001953                       # Average percentage of cache occupancy
system.cpu.dcache.tags.occ_percent::.switch_cpus.data -6465.154297                       # Average percentage of cache occupancy
system.cpu.dcache.tags.occ_percent::total -6465.152344                       # Average percentage of cache occupancy
system.cpu.dcache.tags.occ_task_id_blocks::1024          512                       # Occupied blocks per task id
system.cpu.dcache.tags.age_task_id_blocks_1024::0          284                       # Occupied blocks per task id
system.cpu.dcache.tags.age_task_id_blocks_1024::1          226                       # Occupied blocks per task id
system.cpu.dcache.tags.age_task_id_blocks_1024::4            2                       # Occupied blocks per task id
system.cpu.dcache.tags.occ_task_id_percent::1024            1                       # Percentage of cache occupancy per task id
system.cpu.dcache.tags.tag_accesses        3171684643                       # Number of tag accesses
system.cpu.dcache.tags.data_accesses       3171684643                       # Number of data accesses
system.cpu.dcache.tags.repl_invalid                 0                       # Number of initial replacements
system.cpu.dcache.tags.repl_valid_tag               0                       # Number of local replacements
system.cpu.dcache.tags.repl_valid_data              0                       # Number of global replacements
system.cpu.dcache.tags.power_state.pwrStateResidencyTicks::UNDEFINED 5360355606500                       # Cumulative time (in ticks) in various power states
system.cpu.dtb.instHits                             0                       # ITB inst hits
system.cpu.dtb.instMisses                           0                       # ITB inst misses
system.cpu.dtb.readHits                             0                       # DTB read hits
system.cpu.dtb.readMisses                           0                       # DTB read misses
system.cpu.dtb.writeHits                            0                       # DTB write hits
system.cpu.dtb.writeMisses                          0                       # DTB write misses
system.cpu.dtb.inserts                              0                       # Number of times an entry is inserted into the TLB
system.cpu.dtb.flushTlb                             2                       # Number of times complete TLB was flushed
system.cpu.dtb.flushTlbMva                          0                       # Number of times TLB was flushed by MVA
system.cpu.dtb.flushTlbMvaAsid                      0                       # Number of times TLB was flushed by MVA & ASID
system.cpu.dtb.flushTlbAsid                         0                       # Number of times TLB was flushed by ASID
system.cpu.dtb.flushedEntries                       0                       # Number of entries that have been flushed from TLB
system.cpu.dtb.alignFaults                          0                       # Number of TLB faults due to alignment restrictions
system.cpu.dtb.prefetchFaults                       0                       # Number of TLB faults due to prefetch
system.cpu.dtb.domainFaults                         0                       # Number of TLB faults due to domain restrictions
system.cpu.dtb.permsFaults                          0                       # Number of TLB faults due to permissions restrictions
system.cpu.dtb.readAccesses                         0                       # DTB read accesses
system.cpu.dtb.writeAccesses                        0                       # DTB write accesses
system.cpu.dtb.instAccesses                         0                       # ITB inst accesses
system.cpu.dtb.hits                                 0                       # Total TLB (inst and data) hits
system.cpu.dtb.misses                               0                       # Total TLB (inst and data) misses
system.cpu.dtb.accesses                             0                       # Total TLB (inst and data) accesses
system.cpu.dtb.stage2_mmu.stage2_tlb.instHits            0                       # ITB inst hits
system.cpu.dtb.stage2_mmu.stage2_tlb.instMisses            0                       # ITB inst misses
system.cpu.dtb.stage2_mmu.stage2_tlb.readHits            0                       # DTB read hits
system.cpu.dtb.stage2_mmu.stage2_tlb.readMisses            0                       # DTB read misses
system.cpu.dtb.stage2_mmu.stage2_tlb.writeHits            0                       # DTB write hits
system.cpu.dtb.stage2_mmu.stage2_tlb.writeMisses            0                       # DTB write misses
system.cpu.dtb.stage2_mmu.stage2_tlb.inserts            0                       # Number of times an entry is inserted into the TLB
system.cpu.dtb.stage2_mmu.stage2_tlb.flushTlb            0                       # Number of times complete TLB was flushed
system.cpu.dtb.stage2_mmu.stage2_tlb.flushTlbMva            0                       # Number of times TLB was flushed by MVA
system.cpu.dtb.stage2_mmu.stage2_tlb.flushTlbMvaAsid            0                       # Number of times TLB was flushed by MVA & ASID
system.cpu.dtb.stage2_mmu.stage2_tlb.flushTlbAsid            0                       # Number of times TLB was flushed by ASID
system.cpu.dtb.stage2_mmu.stage2_tlb.flushedEntries            0                       # Number of entries that have been flushed from TLB
system.cpu.dtb.stage2_mmu.stage2_tlb.alignFaults            0                       # Number of TLB faults due to alignment restrictions
system.cpu.dtb.stage2_mmu.stage2_tlb.prefetchFaults            0                       # Number of TLB faults due to prefetch
system.cpu.dtb.stage2_mmu.stage2_tlb.domainFaults            0                       # Number of TLB faults due to domain restrictions
system.cpu.dtb.stage2_mmu.stage2_tlb.permsFaults            0                       # Number of TLB faults due to permissions restrictions
system.cpu.dtb.stage2_mmu.stage2_tlb.readAccesses            0                       # DTB read accesses
system.cpu.dtb.stage2_mmu.stage2_tlb.writeAccesses            0                       # DTB write accesses
system.cpu.dtb.stage2_mmu.stage2_tlb.instAccesses            0                       # ITB inst accesses
system.cpu.dtb.stage2_mmu.stage2_tlb.hits            0                       # Total TLB (inst and data) hits
system.cpu.dtb.stage2_mmu.stage2_tlb.misses            0                       # Total TLB (inst and data) misses
system.cpu.dtb.stage2_mmu.stage2_tlb.accesses            0                       # Total TLB (inst and data) accesses
system.cpu.dtb.stage2_mmu.stage2_tlb.walker.walks            0                       # Table walker walks requested
system.cpu.dtb.stage2_mmu.stage2_tlb.walker.requestOrigin_Requested::Data            0                       # Table walker requests started/completed, data/inst
system.cpu.dtb.stage2_mmu.stage2_tlb.walker.requestOrigin_Requested::Inst            0                       # Table walker requests started/completed, data/inst
system.cpu.dtb.stage2_mmu.stage2_tlb.walker.requestOrigin_Requested::total            0                       # Table walker requests started/completed, data/inst
system.cpu.dtb.stage2_mmu.stage2_tlb.walker.requestOrigin_Completed::Data            0                       # Table walker requests started/completed, data/inst
system.cpu.dtb.stage2_mmu.stage2_tlb.walker.requestOrigin_Completed::Inst            0                       # Table walker requests started/completed, data/inst
system.cpu.dtb.stage2_mmu.stage2_tlb.walker.requestOrigin_Completed::total            0                       # Table walker requests started/completed, data/inst
system.cpu.dtb.stage2_mmu.stage2_tlb.walker.requestOrigin::total            0                       # Table walker requests started/completed, data/inst
system.cpu.dtb.stage2_mmu.stage2_tlb.walker.power_state.pwrStateResidencyTicks::UNDEFINED 5360355606500                       # Cumulative time (in ticks) in various power states
system.cpu.dtb.walker.walks                         0                       # Table walker walks requested
system.cpu.dtb.walker.requestOrigin_Requested::Data            0                       # Table walker requests started/completed, data/inst
system.cpu.dtb.walker.requestOrigin_Requested::Inst            0                       # Table walker requests started/completed, data/inst
system.cpu.dtb.walker.requestOrigin_Requested::total            0                       # Table walker requests started/completed, data/inst
system.cpu.dtb.walker.requestOrigin_Completed::Data            0                       # Table walker requests started/completed, data/inst
system.cpu.dtb.walker.requestOrigin_Completed::Inst            0                       # Table walker requests started/completed, data/inst
system.cpu.dtb.walker.requestOrigin_Completed::total            0                       # Table walker requests started/completed, data/inst
system.cpu.dtb.walker.requestOrigin::total            0                       # Table walker requests started/completed, data/inst
system.cpu.dtb.walker.power_state.pwrStateResidencyTicks::UNDEFINED 5360355606500                       # Cumulative time (in ticks) in various power states
system.cpu.icache.demand_hits::.cpu.inst           17                       # number of demand (read+write) hits
system.cpu.icache.demand_hits::.switch_cpus.inst    224289323                       # number of demand (read+write) hits
system.cpu.icache.demand_hits::total        224289340                       # number of demand (read+write) hits
system.cpu.icache.overall_hits::.cpu.inst           17                       # number of overall hits
system.cpu.icache.overall_hits::.switch_cpus.inst    224289323                       # number of overall hits
system.cpu.icache.overall_hits::total       224289340                       # number of overall hits
system.cpu.icache.demand_misses::.cpu.inst            3                       # number of demand (read+write) misses
system.cpu.icache.demand_misses::.switch_cpus.inst          145                       # number of demand (read+write) misses
system.cpu.icache.demand_misses::total            148                       # number of demand (read+write) misses
system.cpu.icache.overall_misses::.cpu.inst            3                       # number of overall misses
system.cpu.icache.overall_misses::.switch_cpus.inst          145                       # number of overall misses
system.cpu.icache.overall_misses::total           148                       # number of overall misses
system.cpu.icache.demand_miss_latency::.switch_cpus.inst     11272500                       # number of demand (read+write) miss cycles
system.cpu.icache.demand_miss_latency::total     11272500                       # number of demand (read+write) miss cycles
system.cpu.icache.overall_miss_latency::.switch_cpus.inst     11272500                       # number of overall miss cycles
system.cpu.icache.overall_miss_latency::total     11272500                       # number of overall miss cycles
system.cpu.icache.demand_accesses::.cpu.inst           20                       # number of demand (read+write) accesses
system.cpu.icache.demand_accesses::.switch_cpus.inst    224289468                       # number of demand (read+write) accesses
system.cpu.icache.demand_accesses::total    224289488                       # number of demand (read+write) accesses
system.cpu.icache.overall_accesses::.cpu.inst           20                       # number of overall (read+write) accesses
system.cpu.icache.overall_accesses::.switch_cpus.inst    224289468                       # number of overall (read+write) accesses
system.cpu.icache.overall_accesses::total    224289488                       # number of overall (read+write) accesses
system.cpu.icache.demand_miss_rate::.cpu.inst     0.150000                       # miss rate for demand accesses
system.cpu.icache.demand_miss_rate::.switch_cpus.inst     0.000001                       # miss rate for demand accesses
system.cpu.icache.demand_miss_rate::total     0.000001                       # miss rate for demand accesses
system.cpu.icache.overall_miss_rate::.cpu.inst     0.150000                       # miss rate for overall accesses
system.cpu.icache.overall_miss_rate::.switch_cpus.inst     0.000001                       # miss rate for overall accesses
system.cpu.icache.overall_miss_rate::total     0.000001                       # miss rate for overall accesses
system.cpu.icache.demand_avg_miss_latency::.switch_cpus.inst 77741.379310                       # average overall miss latency
system.cpu.icache.demand_avg_miss_latency::total 76165.540541                       # average overall miss latency
system.cpu.icache.overall_avg_miss_latency::.switch_cpus.inst 77741.379310                       # average overall miss latency
system.cpu.icache.overall_avg_miss_latency::total 76165.540541                       # average overall miss latency
system.cpu.icache.blocked_cycles::no_mshrs            2                       # number of cycles access was blocked
system.cpu.icache.blocked_cycles::no_targets            0                       # number of cycles access was blocked
system.cpu.icache.blocked::no_mshrs                 1                       # number of cycles access was blocked
system.cpu.icache.blocked::no_targets               0                       # number of cycles access was blocked
system.cpu.icache.avg_blocked_cycles::no_mshrs            2                       # average number of cycles each access was blocked
system.cpu.icache.avg_blocked_cycles::no_targets          nan                       # average number of cycles each access was blocked
system.cpu.icache.ghost_timestamp_misses            0                       # number of times timestamp policy causes a block to be inaccessible
system.cpu.icache.ghost_commits                    57                       # number of cache lines moved from ghost to main
system.cpu.icache.same_leapfrogs                    0                       # number of times leapfrogging occurs with a shared MSHR request
system.cpu.icache.writebacks::.writebacks           57                       # number of writebacks
system.cpu.icache.writebacks::total                57                       # number of writebacks
system.cpu.icache.demand_mshr_hits::.switch_cpus.inst           27                       # number of demand (read+write) MSHR hits
system.cpu.icache.demand_mshr_hits::total           27                       # number of demand (read+write) MSHR hits
system.cpu.icache.overall_mshr_hits::.switch_cpus.inst           27                       # number of overall MSHR hits
system.cpu.icache.overall_mshr_hits::total           27                       # number of overall MSHR hits
system.cpu.icache.demand_mshr_misses::.switch_cpus.inst          118                       # number of demand (read+write) MSHR misses
system.cpu.icache.demand_mshr_misses::total          118                       # number of demand (read+write) MSHR misses
system.cpu.icache.overall_mshr_misses::.switch_cpus.inst          118                       # number of overall MSHR misses
system.cpu.icache.overall_mshr_misses::total          118                       # number of overall MSHR misses
system.cpu.icache.demand_mshr_miss_latency::.switch_cpus.inst      9793500                       # number of demand (read+write) MSHR miss cycles
system.cpu.icache.demand_mshr_miss_latency::total      9793500                       # number of demand (read+write) MSHR miss cycles
system.cpu.icache.overall_mshr_miss_latency::.switch_cpus.inst      9793500                       # number of overall MSHR miss cycles
system.cpu.icache.overall_mshr_miss_latency::total      9793500                       # number of overall MSHR miss cycles
system.cpu.icache.demand_mshr_miss_rate::.switch_cpus.inst     0.000001                       # mshr miss rate for demand accesses
system.cpu.icache.demand_mshr_miss_rate::total     0.000001                       # mshr miss rate for demand accesses
system.cpu.icache.overall_mshr_miss_rate::.switch_cpus.inst     0.000001                       # mshr miss rate for overall accesses
system.cpu.icache.overall_mshr_miss_rate::total     0.000001                       # mshr miss rate for overall accesses
system.cpu.icache.demand_avg_mshr_miss_latency::.switch_cpus.inst 82995.762712                       # average overall mshr miss latency
system.cpu.icache.demand_avg_mshr_miss_latency::total 82995.762712                       # average overall mshr miss latency
system.cpu.icache.overall_avg_mshr_miss_latency::.switch_cpus.inst 82995.762712                       # average overall mshr miss latency
system.cpu.icache.overall_avg_mshr_miss_latency::total 82995.762712                       # average overall mshr miss latency
system.cpu.icache.replacements                      0                       # number of replacements
system.cpu.icache.ReadReq_hits::.cpu.inst           17                       # number of ReadReq hits
system.cpu.icache.ReadReq_hits::.switch_cpus.inst    224289323                       # number of ReadReq hits
system.cpu.icache.ReadReq_hits::total       224289340                       # number of ReadReq hits
system.cpu.icache.ReadReq_misses::.cpu.inst            3                       # number of ReadReq misses
system.cpu.icache.ReadReq_misses::.switch_cpus.inst          145                       # number of ReadReq misses
system.cpu.icache.ReadReq_misses::total           148                       # number of ReadReq misses
system.cpu.icache.ReadReq_miss_latency::.switch_cpus.inst     11272500                       # number of ReadReq miss cycles
system.cpu.icache.ReadReq_miss_latency::total     11272500                       # number of ReadReq miss cycles
system.cpu.icache.ReadReq_accesses::.cpu.inst           20                       # number of ReadReq accesses(hits+misses)
system.cpu.icache.ReadReq_accesses::.switch_cpus.inst    224289468                       # number of ReadReq accesses(hits+misses)
system.cpu.icache.ReadReq_accesses::total    224289488                       # number of ReadReq accesses(hits+misses)
system.cpu.icache.ReadReq_miss_rate::.cpu.inst     0.150000                       # miss rate for ReadReq accesses
system.cpu.icache.ReadReq_miss_rate::.switch_cpus.inst     0.000001                       # miss rate for ReadReq accesses
system.cpu.icache.ReadReq_miss_rate::total     0.000001                       # miss rate for ReadReq accesses
system.cpu.icache.ReadReq_avg_miss_latency::.switch_cpus.inst 77741.379310                       # average ReadReq miss latency
system.cpu.icache.ReadReq_avg_miss_latency::total 76165.540541                       # average ReadReq miss latency
system.cpu.icache.ReadReq_mshr_hits::.switch_cpus.inst           27                       # number of ReadReq MSHR hits
system.cpu.icache.ReadReq_mshr_hits::total           27                       # number of ReadReq MSHR hits
system.cpu.icache.ReadReq_mshr_misses::.switch_cpus.inst          118                       # number of ReadReq MSHR misses
system.cpu.icache.ReadReq_mshr_misses::total          118                       # number of ReadReq MSHR misses
system.cpu.icache.ReadReq_mshr_miss_latency::.switch_cpus.inst      9793500                       # number of ReadReq MSHR miss cycles
system.cpu.icache.ReadReq_mshr_miss_latency::total      9793500                       # number of ReadReq MSHR miss cycles
system.cpu.icache.ReadReq_mshr_miss_rate::.switch_cpus.inst     0.000001                       # mshr miss rate for ReadReq accesses
system.cpu.icache.ReadReq_mshr_miss_rate::total     0.000001                       # mshr miss rate for ReadReq accesses
system.cpu.icache.ReadReq_avg_mshr_miss_latency::.switch_cpus.inst 82995.762712                       # average ReadReq mshr miss latency
system.cpu.icache.ReadReq_avg_mshr_miss_latency::total 82995.762712                       # average ReadReq mshr miss latency
system.cpu.icache.ghosttags.tagsinuse        0.001980                       # Cycle average of tags in use
system.cpu.icache.ghosttags.total_refs              0                       # Total number of references to valid blocks.
system.cpu.icache.ghosttags.sampled_refs            0                       # Sample count of references to valid blocks.
system.cpu.icache.ghosttags.avg_refs              nan                       # Average number of references to valid blocks.
system.cpu.icache.ghosttags.warmup_cycle 5059484405500                       # Cycle when the warmup percentage was hit.
system.cpu.icache.ghosttags.occ_blocks::.switch_cpus.inst   117.977800                       # Average occupied blocks per requestor
system.cpu.icache.ghosttags.occ_percent::.switch_cpus.inst     3.686806                       # Average percentage of cache occupancy
system.cpu.icache.ghosttags.occ_percent::total     3.686806                       # Average percentage of cache occupancy
system.cpu.icache.ghosttags.tag_accesses          452                       # Number of tag accesses
system.cpu.icache.ghosttags.data_accesses          452                       # Number of data accesses
system.cpu.icache.ghosttags.repl_invalid            0                       # Number of initial replacements
system.cpu.icache.ghosttags.repl_valid_tag            0                       # Number of local replacements
system.cpu.icache.ghosttags.repl_valid_data            0                       # Number of global replacements
system.cpu.icache.ghosttags.power_state.pwrStateResidencyTicks::UNDEFINED 5360355606500                       # Cumulative time (in ticks) in various power states
system.cpu.icache.power_state.pwrStateResidencyTicks::UNDEFINED 5360355606500                       # Cumulative time (in ticks) in various power states
system.cpu.icache.tags.tagsinuse           -57.989433                       # Cycle average of tags in use
system.cpu.icache.tags.total_refs           224289518                       # Total number of references to valid blocks.
system.cpu.icache.tags.sampled_refs               178                       # Sample count of references to valid blocks.
system.cpu.icache.tags.avg_refs          1260053.471910                       # Average number of references to valid blocks.
system.cpu.icache.tags.warmup_cycle      5059484258500                       # Cycle when the warmup percentage was hit.
system.cpu.icache.tags.occ_blocks::.cpu.inst     3.000000                       # Average occupied blocks per requestor
system.cpu.icache.tags.occ_blocks::.switch_cpus.inst   -60.989433                       # Average occupied blocks per requestor
system.cpu.icache.tags.occ_percent::.cpu.inst     0.005859                       # Average percentage of cache occupancy
system.cpu.icache.tags.occ_percent::.switch_cpus.inst    -0.119120                       # Average percentage of cache occupancy
system.cpu.icache.tags.occ_percent::total    -0.113261                       # Average percentage of cache occupancy
system.cpu.icache.tags.occ_task_id_blocks::1024           60                       # Occupied blocks per task id
system.cpu.icache.tags.age_task_id_blocks_1024::4           60                       # Occupied blocks per task id
system.cpu.icache.tags.occ_task_id_percent::1024     0.117188                       # Percentage of cache occupancy per task id
system.cpu.icache.tags.tag_accesses        1794315964                       # Number of tag accesses
system.cpu.icache.tags.data_accesses       1794315964                       # Number of data accesses
system.cpu.icache.tags.repl_invalid                 0                       # Number of initial replacements
system.cpu.icache.tags.repl_valid_tag               0                       # Number of local replacements
system.cpu.icache.tags.repl_valid_data              0                       # Number of global replacements
system.cpu.icache.tags.power_state.pwrStateResidencyTicks::UNDEFINED 5360355606500                       # Cumulative time (in ticks) in various power states
system.cpu.itb.instHits                             0                       # ITB inst hits
system.cpu.itb.instMisses                           0                       # ITB inst misses
system.cpu.itb.readHits                             0                       # DTB read hits
system.cpu.itb.readMisses                           0                       # DTB read misses
system.cpu.itb.writeHits                            0                       # DTB write hits
system.cpu.itb.writeMisses                          0                       # DTB write misses
system.cpu.itb.inserts                              0                       # Number of times an entry is inserted into the TLB
system.cpu.itb.flushTlb                             2                       # Number of times complete TLB was flushed
system.cpu.itb.flushTlbMva                          0                       # Number of times TLB was flushed by MVA
system.cpu.itb.flushTlbMvaAsid                      0                       # Number of times TLB was flushed by MVA & ASID
system.cpu.itb.flushTlbAsid                         0                       # Number of times TLB was flushed by ASID
system.cpu.itb.flushedEntries                       0                       # Number of entries that have been flushed from TLB
system.cpu.itb.alignFaults                          0                       # Number of TLB faults due to alignment restrictions
system.cpu.itb.prefetchFaults                       0                       # Number of TLB faults due to prefetch
system.cpu.itb.domainFaults                         0                       # Number of TLB faults due to domain restrictions
system.cpu.itb.permsFaults                          0                       # Number of TLB faults due to permissions restrictions
system.cpu.itb.readAccesses                         0                       # DTB read accesses
system.cpu.itb.writeAccesses                        0                       # DTB write accesses
system.cpu.itb.instAccesses                         0                       # ITB inst accesses
system.cpu.itb.hits                                 0                       # Total TLB (inst and data) hits
system.cpu.itb.misses                               0                       # Total TLB (inst and data) misses
system.cpu.itb.accesses                             0                       # Total TLB (inst and data) accesses
system.cpu.itb.stage2_mmu.stage2_tlb.instHits            0                       # ITB inst hits
system.cpu.itb.stage2_mmu.stage2_tlb.instMisses            0                       # ITB inst misses
system.cpu.itb.stage2_mmu.stage2_tlb.readHits            0                       # DTB read hits
system.cpu.itb.stage2_mmu.stage2_tlb.readMisses            0                       # DTB read misses
system.cpu.itb.stage2_mmu.stage2_tlb.writeHits            0                       # DTB write hits
system.cpu.itb.stage2_mmu.stage2_tlb.writeMisses            0                       # DTB write misses
system.cpu.itb.stage2_mmu.stage2_tlb.inserts            0                       # Number of times an entry is inserted into the TLB
system.cpu.itb.stage2_mmu.stage2_tlb.flushTlb            0                       # Number of times complete TLB was flushed
system.cpu.itb.stage2_mmu.stage2_tlb.flushTlbMva            0                       # Number of times TLB was flushed by MVA
system.cpu.itb.stage2_mmu.stage2_tlb.flushTlbMvaAsid            0                       # Number of times TLB was flushed by MVA & ASID
system.cpu.itb.stage2_mmu.stage2_tlb.flushTlbAsid            0                       # Number of times TLB was flushed by ASID
system.cpu.itb.stage2_mmu.stage2_tlb.flushedEntries            0                       # Number of entries that have been flushed from TLB
system.cpu.itb.stage2_mmu.stage2_tlb.alignFaults            0                       # Number of TLB faults due to alignment restrictions
system.cpu.itb.stage2_mmu.stage2_tlb.prefetchFaults            0                       # Number of TLB faults due to prefetch
system.cpu.itb.stage2_mmu.stage2_tlb.domainFaults            0                       # Number of TLB faults due to domain restrictions
system.cpu.itb.stage2_mmu.stage2_tlb.permsFaults            0                       # Number of TLB faults due to permissions restrictions
[...]
system.switch_cpus.dtb.walker.power_state.pwrStateResidencyTicks::UNDEFINED 5360355606500                       # Cumulative time (in ticks) in various power states
system.switch_cpus.fetch.icacheStallCycles    224307696                       # Number of cycles fetch is stalled on an Icache miss
system.switch_cpus.fetch.insts             2017806829                       # Number of instructions fetch has processed
system.switch_cpus.fetch.branches           211118460                       # Number of branches that fetch encountered
system.switch_cpus.fetch.predictedBranches     92399049                       # Number of branches that fetch has predicted taken
system.switch_cpus.fetch.cycles             377394917                       # Number of cycles fetch has run and was not squashing or blocked
system.switch_cpus.fetch.squashCycles           59830                       # Number of cycles fetch has spent squashing
system.switch_cpus.fetch.cacheLines         224289468                       # Number of cache lines fetched
system.switch_cpus.fetch.icacheSquashes          7583                       # Number of outstanding Icache misses that were squashed
system.switch_cpus.fetch.nisnDist::samples    601732528                       # Number of instructions fetched each cycle (Total)
system.switch_cpus.fetch.nisnDist::mean      3.353510                       # Number of instructions fetched each cycle (Total)
system.switch_cpus.fetch.nisnDist::stdev     3.412356                       # Number of instructions fetched each cycle (Total)
system.switch_cpus.fetch.nisnDist::underflows            0      0.00%      0.00% # Number of instructions fetched each cycle (Total)
system.switch_cpus.fetch.nisnDist::0        267987464     44.54%     44.54% # Number of instructions fetched each cycle (Total)
system.switch_cpus.fetch.nisnDist::1         13252804      2.20%     46.74% # Number of instructions fetched each cycle (Total)
system.switch_cpus.fetch.nisnDist::2          1862223      0.31%     47.05% # Number of instructions fetched each cycle (Total)
system.switch_cpus.fetch.nisnDist::3         30146069      5.01%     52.06% # Number of instructions fetched each cycle (Total)
system.switch_cpus.fetch.nisnDist::4         52812815      8.78%     60.83% # Number of instructions fetched each cycle (Total)
system.switch_cpus.fetch.nisnDist::5         53168625      8.84%     69.67% # Number of instructions fetched each cycle (Total)
system.switch_cpus.fetch.nisnDist::6         13295401      2.21%     71.88% # Number of instructions fetched each cycle (Total)
system.switch_cpus.fetch.nisnDist::7            23177      0.00%     71.88% # Number of instructions fetched each cycle (Total)
system.switch_cpus.fetch.nisnDist::8        169183950     28.12%    100.00% # Number of instructions fetched each cycle (Total)
system.switch_cpus.fetch.nisnDist::overflows            0      0.00%    100.00% # Number of instructions fetched each cycle (Total)
system.switch_cpus.fetch.nisnDist::min_value            0                       # Number of instructions fetched each cycle (Total)
system.switch_cpus.fetch.nisnDist::max_value            8                       # Number of instructions fetched each cycle (Total)
system.switch_cpus.fetch.nisnDist::total    601732528                       # Number of instructions fetched each cycle (Total)
system.switch_cpus.fetch.branchRate          0.350845                       # Number of branch fetches per cycle
system.switch_cpus.fetch.rate                3.353272                       # Number of inst fetches per cycle
system.switch_cpus.itb.instHits                     0                       # ITB inst hits
system.switch_cpus.itb.instMisses                   0                       # ITB inst misses
system.switch_cpus.itb.readHits                     0                       # DTB read hits
system.switch_cpus.itb.readMisses                   0                       # DTB read misses
system.switch_cpus.itb.writeHits                    0                       # DTB write hits
system.switch_cpus.itb.writeMisses                  0                       # DTB write misses
system.switch_cpus.itb.inserts                      0                       # Number of times an entry is inserted into the TLB
system.switch_cpus.itb.flushTlb                     0                       # Number of times complete TLB was flushed
system.switch_cpus.itb.flushTlbMva                  0                       # Number of times TLB was flushed by MVA
system.switch_cpus.itb.flushTlbMvaAsid              0                       # Number of times TLB was flushed by MVA & ASID
system.switch_cpus.itb.flushTlbAsid                 0                       # Number of times TLB was flushed by ASID
system.switch_cpus.itb.flushedEntries               0                       # Number of entries that have been flushed from TLB
system.switch_cpus.itb.alignFaults                  0                       # Number of TLB faults due to alignment restrictions
system.switch_cpus.itb.prefetchFaults               0                       # Number of TLB faults due to prefetch
system.switch_cpus.itb.domainFaults                 0                       # Number of TLB faults due to domain restrictions
system.switch_cpus.itb.permsFaults                  0                       # Number of TLB faults due to permissions restrictions
system.switch_cpus.itb.readAccesses                 0                       # DTB read accesses
system.switch_cpus.itb.writeAccesses                0                       # DTB write accesses
system.switch_cpus.itb.instAccesses                 0                       # ITB inst accesses
system.switch_cpus.itb.hits                         0                       # Total TLB (inst and data) hits
system.switch_cpus.itb.misses                       0                       # Total TLB (inst and data) misses
system.switch_cpus.itb.accesses                     0                       # Total TLB (inst and data) accesses
system.switch_cpus.itb.stage2_mmu.stage2_tlb.instHits            0                       # ITB inst hits
system.switch_cpus.itb.stage2_mmu.stage2_tlb.instMisses            0                       # ITB inst misses
system.switch_cpus.itb.stage2_mmu.stage2_tlb.readHits            0                       # DTB read hits
system.switch_cpus.itb.stage2_mmu.stage2_tlb.readMisses            0                       # DTB read misses
system.switch_cpus.itb.stage2_mmu.stage2_tlb.writeHits            0                       # DTB write hits
system.switch_cpus.itb.stage2_mmu.stage2_tlb.writeMisses            0                       # DTB write misses
system.switch_cpus.itb.stage2_mmu.stage2_tlb.inserts            0                       # Number of times an entry is inserted into the TLB
system.switch_cpus.itb.stage2_mmu.stage2_tlb.flushTlb            0                       # Number of times complete TLB was flushed
system.switch_cpus.itb.stage2_mmu.stage2_tlb.flushTlbMva            0                       # Number of times TLB was flushed by MVA
system.switch_cpus.itb.stage2_mmu.stage2_tlb.flushTlbMvaAsid            0                       # Number of times TLB was flushed by MVA & ASID
system.switch_cpus.itb.stage2_mmu.stage2_tlb.flushTlbAsid            0                       # Number of times TLB was flushed by ASID
system.switch_cpus.itb.stage2_mmu.stage2_tlb.flushedEntries            0                       # Number of entries that have been flushed from TLB
system.switch_cpus.itb.stage2_mmu.stage2_tlb.alignFaults            0                       # Number of TLB faults due to alignment restrictions
system.switch_cpus.itb.stage2_mmu.stage2_tlb.prefetchFaults            0                       # Number of TLB faults due to prefetch
system.switch_cpus.itb.stage2_mmu.stage2_tlb.domainFaults            0                       # Number of TLB faults due to domain restrictions
system.switch_cpus.itb.stage2_mmu.stage2_tlb.permsFaults            0                       # Number of TLB faults due to permissions restrictions
system.switch_cpus.itb.stage2_mmu.stage2_tlb.readAccesses            0                       # DTB read accesses
system.switch_cpus.itb.stage2_mmu.stage2_tlb.writeAccesses            0                       # DTB write accesses
system.switch_cpus.itb.stage2_mmu.stage2_tlb.instAccesses            0                       # ITB inst accesses
system.switch_cpus.itb.stage2_mmu.stage2_tlb.hits            0                       # Total TLB (inst and data) hits
system.switch_cpus.itb.stage2_mmu.stage2_tlb.misses            0                       # Total TLB (inst and data) misses
system.switch_cpus.itb.stage2_mmu.stage2_tlb.accesses            0                       # Total TLB (inst and data) accesses
system.switch_cpus.itb.stage2_mmu.stage2_tlb.walker.walks            0                       # Table walker walks requested
system.switch_cpus.itb.stage2_mmu.stage2_tlb.walker.requestOrigin_Requested::Data            0                       # Table walker requests started/completed, data/inst
system.switch_cpus.itb.stage2_mmu.stage2_tlb.walker.requestOrigin_Requested::Inst            0                       # Table walker requests started/completed, data/inst
system.switch_cpus.itb.stage2_mmu.stage2_tlb.walker.requestOrigin_Requested::total            0                       # Table walker requests started/completed, data/inst
system.switch_cpus.itb.stage2_mmu.stage2_tlb.walker.requestOrigin_Completed::Data            0                       # Table walker requests started/completed, data/inst
system.switch_cpus.itb.stage2_mmu.stage2_tlb.walker.requestOrigin_Completed::Inst            0                       # Table walker requests started/completed, data/inst
system.switch_cpus.itb.stage2_mmu.stage2_tlb.walker.requestOrigin_Completed::total            0                       # Table walker requests started/completed, data/inst
system.switch_cpus.itb.stage2_mmu.stage2_tlb.walker.requestOrigin::total            0                       # Table walker requests started/completed, data/inst
system.switch_cpus.itb.stage2_mmu.stage2_tlb.walker.power_state.pwrStateResidencyTicks::UNDEFINED 5360355606500                       # Cumulative time (in ticks) in various power states
system.switch_cpus.itb.walker.walks                 0                       # Table walker walks requested
system.switch_cpus.itb.walker.requestOrigin_Requested::Data            0                       # Table walker requests started/completed, data/inst
system.switch_cpus.itb.walker.requestOrigin_Requested::Inst            0                       # Table walker requests started/completed, data/inst
system.switch_cpus.itb.walker.requestOrigin_Requested::total            0                       # Table walker requests started/completed, data/inst
system.switch_cpus.itb.walker.requestOrigin_Completed::Data            0                       # Table walker requests started/completed, data/inst
system.switch_cpus.itb.walker.requestOrigin_Completed::Inst            0                       # Table walker requests started/completed, data/inst
system.switch_cpus.itb.walker.requestOrigin_Completed::total            0                       # Table walker requests started/completed, data/inst
system.switch_cpus.itb.walker.requestOrigin::total            0                       # Table walker requests started/completed, data/inst
system.switch_cpus.itb.walker.power_state.pwrStateResidencyTicks::UNDEFINED 5360355606500                       # Cumulative time (in ticks) in various power states
system.switch_cpus.lsq0.forwLoads               13824                       # Number of loads that had data forwarded from stores
system.switch_cpus.lsq0.squashedLoads          662025                       # Number of loads squashed
system.switch_cpus.lsq0.ignoredResponses          187                       # Number of memory responses ignored because the instruction is squashed
system.switch_cpus.lsq0.memOrderViolation         2307                       # Number of memory ordering violations
system.switch_cpus.lsq0.squashedStores         157950                       # Number of stores squashed
system.switch_cpus.lsq0.rescheduledLoads        16572                       # Number of loads that were rescheduled
system.switch_cpus.lsq0.blockedByCache          46356                       # Number of times an access to memory failed due to the cache being blocked
system.switch_cpus.power_state.pwrStateResidencyTicks::OFF 300871348500                       # Cumulative time (in ticks) in various power states
system.switch_cpus.rename.squashCycles          29887                       # Number of cycles rename is squashing
system.switch_cpus.rename.idleCycles        183565131                       # Number of cycles rename is idle
system.switch_cpus.rename.blockCycles        49051305                       # Number of cycles rename is blocking
system.switch_cpus.rename.serializeStallCycles            0                       # count of cycles rename stalledfor serializing inst
system.switch_cpus.rename.runCycles         296932992                       # Number of cycles rename is running
system.switch_cpus.rename.unblockCycles      72153206                       # Number of cycles rename is unblocking
system.switch_cpus.rename.renamedInsts     2017562425                       # Number of instructions processed by rename
system.switch_cpus.rename.ROBFullEvents        919599                       # Number of times rename has blocked due to ROB full
system.switch_cpus.rename.IQFullEvents       63391494                       # Number of times rename has blocked due to IQ full
system.switch_cpus.rename.LQFullEvents        3095076                       # Number of times rename has blocked due to LQ full
system.switch_cpus.rename.SQFullEvents          28964                       # Number of times rename has blocked due to SQ full
system.switch_cpus.rename.renamedOperands   3098318676                       # Number of destination operands rename has renamed
system.switch_cpus.rename.lookups          6301661478                       # Number of register rename lookups that rename has made
system.switch_cpus.rename.intLookups       1226710934                       # Number of integer rename lookups
system.switch_cpus.rename.vecLookups       1397146704                       # Number of vector rename lookups
system.switch_cpus.rename.committedMaps    3091942280                       # Number of HB maps that are committed
system.switch_cpus.rename.undoneMaps          6376262                       # Number of HB maps that are undone due to squashing
system.switch_cpus.rename.serializing               0                       # count of serializing insts renamed
system.switch_cpus.rename.tempSerializing            0                       # count of temporary serializing insts renamed
system.switch_cpus.rename.skidInsts         189109467                       # count of insts added to the skid buffer
system.switch_cpus.rob.reads               2433402084                       # The number of ROB reads
system.switch_cpus.rob.writes              4032611180                       # The number of ROB writes
system.switch_cpus.thread0.numInsts        2000000001                       # Number of Instructions committed
system.switch_cpus.thread0.numOps          2000092194                       # Number of Ops committed
system.switch_cpus.thread0.numMemRefs               0                       # Number of Memory References
system.tol2bus.trans_dist::ReadResp           6618254                       # Transaction distribution
system.tol2bus.trans_dist::WritebackDirty      3192140                       # Transaction distribution
system.tol2bus.trans_dist::WritebackClean      6610863                       # Transaction distribution
system.tol2bus.trans_dist::CleanEvict          538887                       # Transaction distribution
system.tol2bus.trans_dist::HardPFReq          1802987                       # Transaction distribution
system.tol2bus.trans_dist::UpgradeReq            6436                       # Transaction distribution
system.tol2bus.trans_dist::UpgradeResp           6436                       # Transaction distribution
system.tol2bus.trans_dist::ReadExReq          1652870                       # Transaction distribution
system.tol2bus.trans_dist::ReadExResp         1652870                       # Transaction distribution
system.tol2bus.trans_dist::ReadCleanReq       6618252                       # Transaction distribution
system.tol2bus.trans_dist::ReadSharedReq            2                       # Transaction distribution
system.tol2bus.pkt_count_system.cpu.icache.mem_side_port::system.l2.cpu_side_port          303                       # Packet count per connected requestor and responder (bytes)
system.tol2bus.pkt_count_system.cpu.dcache.mem_side_port::system.l2.cpu_side_port     24825022                       # Packet count per connected requestor and responder (bytes)
system.tol2bus.pkt_count::total              24825325                       # Packet count per connected requestor and responder (bytes)
system.tol2bus.pkt_size_system.cpu.icache.mem_side_port::system.l2.cpu_side_port         7744                       # Cumulative packet size per connected requestor and responder (bytes)
system.tol2bus.pkt_size_system.cpu.dcache.mem_side_port::system.l2.cpu_side_port   1058628480                       # Cumulative packet size per connected requestor and responder (bytes)
system.tol2bus.pkt_size::total             1058636224                       # Cumulative packet size per connected requestor and responder (bytes)
system.tol2bus.snoops                         3874672                       # Total snoops (count)
system.tol2bus.snoopTraffic                  98107904                       # Total snoop traffic (bytes)
system.tol2bus.snoop_fanout::samples         12152232                       # Request fanout histogram
system.tol2bus.snoop_fanout::mean            0.023259                       # Request fanout histogram
system.tol2bus.snoop_fanout::stdev           0.150724                       # Request fanout histogram
system.tol2bus.snoop_fanout::underflows             0      0.00%      0.00% # Request fanout histogram
system.tol2bus.snoop_fanout::0               11869587     97.67%     97.67% # Request fanout histogram
system.tol2bus.snoop_fanout::1                 282645      2.33%    100.00% # Request fanout histogram
system.tol2bus.snoop_fanout::2                      0      0.00%    100.00% # Request fanout histogram
system.tol2bus.snoop_fanout::overflows              0      0.00%    100.00% # Request fanout histogram
system.tol2bus.snoop_fanout::min_value              0                       # Request fanout histogram
system.tol2bus.snoop_fanout::max_value              1                       # Request fanout histogram
system.tol2bus.snoop_fanout::total           12152232                       # Request fanout histogram
system.tol2bus.power_state.pwrStateResidencyTicks::UNDEFINED 5360355606500                       # Cumulative time (in ticks) in various power states
system.tol2bus.reqLayer0.occupancy        19834132941                       # Layer occupancy (ticks)
system.tol2bus.reqLayer0.utilization              6.6                       # Layer utilization (%)
system.tol2bus.respLayer0.occupancy            177000                       # Layer occupancy (ticks)
system.tol2bus.respLayer0.utilization             0.0                       # Layer utilization (%)
system.tol2bus.respLayer1.occupancy       12409719500                       # Layer occupancy (ticks)
system.tol2bus.respLayer1.utilization             4.1                       # Layer utilization (%)
system.voltage_domain.voltage                       1                       # Voltage in Volts

---------- End Simulation Statistics   ----------
