
---------- Begin Simulation Statistics ----------
final_tick                               6897592340000                       # Number of ticks from beginning of simulation (restored from checkpoints and never reset)
host_inst_rate                                 305842                       # Simulator instruction rate (inst/s)
host_mem_usage                               30828872                       # Number of bytes of host memory used
host_op_rate                                   358275                       # Simulator op (including micro ops) rate (op/s)
host_seconds                                  6539.33                       # Real time elapsed on the host
host_tick_rate                              143195230                       # Simulator tick rate (ticks/s)
sim_freq                                 1000000000000                       # Frequency of simulated ticks
sim_insts                                  2000000019                       # Number of instructions simulated
sim_ops                                    2342881196                       # Number of ops (including micro ops) simulated
sim_seconds                                  0.936401                       # Number of seconds simulated
sim_ticks                                936400798000                       # Number of ticks simulated
system.cpu.Branches                                 4                       # Number of branches fetched
system.cpu.committedInsts                          17                       # Number of instructions committed
system.cpu.committedOps                            20                       # Number of ops (including micro ops) committed
system.cpu.dcache.MSHRs.leapFrogMisses         825366                       # number of false blocks from MSHR
system.cpu.icache.MSHRs.leapFrogMisses              0                       # number of false blocks from MSHR
system.cpu.idle_fraction                            0                       # Percentage of idle cycles
system.cpu.not_idle_fraction                        1                       # Percentage of non-idle cycles
system.cpu.numCycles                               20                       # number of cpu cycles simulated
system.cpu.numWorkItemsCompleted                    0                       # number of work items this cpu completed
system.cpu.numWorkItemsStarted                      0                       # number of work items this cpu started
system.cpu.num_busy_cycles                         20                       # Number of busy cycles
system.cpu.num_cc_register_reads                    3                       # number of times the CC registers were read
system.cpu.num_cc_register_writes                   3                       # number of times the CC registers were written
system.cpu.num_conditional_control_insts            2                       # number of instructions that are conditional controls
system.cpu.num_fp_alu_accesses                      0                       # Number of float alu accesses
system.cpu.num_fp_insts                             0                       # number of float instructions
system.cpu.num_fp_register_reads                    0                       # number of times the floating registers were read
system.cpu.num_fp_register_writes                   0                       # number of times the floating registers were written
system.cpu.num_func_calls                           2                       # number of times a function call or return occured
system.cpu.num_idle_cycles                          0                       # Number of idle cycles
system.cpu.num_int_alu_accesses                    19                       # Number of integer alu accesses
system.cpu.num_int_insts                           19                       # number of integer instructions
system.cpu.num_int_register_reads                  26                       # number of times the integer registers were read
system.cpu.num_int_register_writes                 16                       # number of times the integer registers were written
system.cpu.num_load_insts                           2                       # Number of load instructions
system.cpu.num_mem_refs                             4                       # number of memory refs
system.cpu.num_store_insts                          2                       # Number of store instructions
system.cpu.num_vec_alu_accesses                     0                       # Number of vector alu accesses
system.cpu.num_vec_insts                            0                       # number of vector instructions
system.cpu.num_vec_register_reads                   0                       # number of times the vector registers were read
system.cpu.num_vec_register_writes                  0                       # number of times the vector registers were written
system.cpu.op_class::No_OpClass                     0      0.00%      0.00% # Class of executed instruction
system.cpu.op_class::IntAlu                        16     80.00%     80.00% # Class of executed instruction
system.cpu.op_class::IntMult                        0      0.00%     80.00% # Class of executed instruction
system.cpu.op_class::IntDiv                         0      0.00%     80.00% # Class of executed instruction
system.cpu.op_class::FloatAdd                       0      0.00%     80.00% # Class of executed instruction
system.cpu.op_class::FloatCmp                       0      0.00%     80.00% # Class of executed instruction
system.cpu.op_class::FloatCvt                       0      0.00%     80.00% # Class of executed instruction
system.cpu.op_class::FloatMult                      0      0.00%     80.00% # Class of executed instruction
system.cpu.op_class::FloatMultAcc                   0      0.00%     80.00% # Class of executed instruction
system.cpu.op_class::FloatDiv                       0      0.00%     80.00% # Class of executed instruction
system.cpu.op_class::FloatMisc                      0      0.00%     80.00% # Class of executed instruction
system.cpu.op_class::FloatSqrt                      0      0.00%     80.00% # Class of executed instruction
system.cpu.op_class::SimdAdd                        0      0.00%     80.00% # Class of executed instruction
system.cpu.op_class::SimdAddAcc                     0      0.00%     80.00% # Class of executed instruction
system.cpu.op_class::SimdAlu                        0      0.00%     80.00% # Class of executed instruction
system.cpu.op_class::SimdCmp                        0      0.00%     80.00% # Class of executed instruction
system.cpu.op_class::SimdCvt                        0      0.00%     80.00% # Class of executed instruction
system.cpu.op_class::SimdMisc                       0      0.00%     80.00% # Class of executed instruction
system.cpu.op_class::SimdMult                       0      0.00%     80.00% # Class of executed instruction
system.cpu.op_class::SimdMultAcc                    0      0.00%     80.00% # Class of executed instruction
system.cpu.op_class::SimdShift                      0      0.00%     80.00% # Class of executed instruction
system.cpu.op_class::SimdShiftAcc                   0      0.00%     80.00% # Class of executed instruction
system.cpu.op_class::SimdDiv                        0      0.00%     80.00% # Class of executed instruction
system.cpu.op_class::SimdSqrt                       0      0.00%     80.00% # Class of executed instruction
system.cpu.op_class::SimdFloatAdd                   0      0.00%     80.00% # Class of executed instruction
system.cpu.op_class::SimdFloatAlu                   0      0.00%     80.00% # Class of executed instruction
system.cpu.op_class::SimdFloatCmp                   0      0.00%     80.00% # Class of executed instruction
system.cpu.op_class::SimdFloatCvt                   0      0.00%     80.00% # Class of executed instruction
system.cpu.op_class::SimdFloatDiv                   0      0.00%     80.00% # Class of executed instruction
system.cpu.op_class::SimdFloatMisc                  0      0.00%     80.00% # Class of executed instruction
system.cpu.op_class::SimdFloatMult                  0      0.00%     80.00% # Class of executed instruction
system.cpu.op_class::SimdFloatMultAcc               0      0.00%     80.00% # Class of executed instruction
system.cpu.op_class::SimdFloatSqrt                  0      0.00%     80.00% # Class of executed instruction
system.cpu.op_class::SimdReduceAdd                  0      0.00%     80.00% # Class of executed instruction
system.cpu.op_class::SimdReduceAlu                  0      0.00%     80.00% # Class of executed instruction
system.cpu.op_class::SimdReduceCmp                  0      0.00%     80.00% # Class of executed instruction
system.cpu.op_class::SimdFloatReduceAdd             0      0.00%     80.00% # Class of executed instruction
system.cpu.op_class::SimdFloatReduceCmp             0      0.00%     80.00% # Class of executed instruction
system.cpu.op_class::SimdAes                        0      0.00%     80.00% # Class of executed instruction
system.cpu.op_class::SimdAesMix                     0      0.00%     80.00% # Class of executed instruction
system.cpu.op_class::SimdSha1Hash                   0      0.00%     80.00% # Class of executed instruction
system.cpu.op_class::SimdSha1Hash2                  0      0.00%     80.00% # Class of executed instruction
system.cpu.op_class::SimdSha256Hash                 0      0.00%     80.00% # Class of executed instruction
system.cpu.op_class::SimdSha256Hash2                0      0.00%     80.00% # Class of executed instruction
system.cpu.op_class::SimdShaSigma2                  0      0.00%     80.00% # Class of executed instruction
system.cpu.op_class::SimdShaSigma3                  0      0.00%     80.00% # Class of executed instruction
system.cpu.op_class::SimdPredAlu                    0      0.00%     80.00% # Class of executed instruction
system.cpu.op_class::MemRead                        2     10.00%     90.00% # Class of executed instruction
system.cpu.op_class::MemWrite                       2     10.00%    100.00% # Class of executed instruction
system.cpu.op_class::FloatMemRead                   0      0.00%    100.00% # Class of executed instruction
system.cpu.op_class::FloatMemWrite                  0      0.00%    100.00% # Class of executed instruction
system.cpu.op_class::IprAccess                      0      0.00%    100.00% # Class of executed instruction
system.cpu.op_class::InstPrefetch                   0      0.00%    100.00% # Class of executed instruction
system.cpu.op_class::total                         20                       # Class of executed instruction
system.cpu.workload.numSyscalls                   194                       # Number of system calls
system.l2.MSHRs.leapFrogMisses                      0                       # number of false blocks from MSHR
system.membus.snoop_filter.hit_multi_requests            0                       # Number of requests hitting in the snoop filter with multiple (>1) holders of the requested data.
system.membus.snoop_filter.hit_multi_snoops            0                       # Number of snoops hitting in the snoop filter with multiple (>1) holders of the requested data.
system.membus.snoop_filter.hit_single_requests      7291194                       # Number of requests hitting in the snoop filter with a single holder of the requested data.
system.membus.snoop_filter.hit_single_snoops            0                       # Number of snoops hitting in the snoop filter with a single holder of the requested data.
system.membus.snoop_filter.tot_requests      13736096                       # Total number of requests made to the snoop filter.
system.membus.snoop_filter.tot_snoops               0                       # Total number of snoops made to the snoop filter.
system.switch_cpus.cc_regfile_reads         694920205                       # number of cc regfile reads
system.switch_cpus.cc_regfile_writes        671569431                       # number of cc regfile writes
system.switch_cpus.committedInsts          2000000002                       # Number of Instructions Simulated
system.switch_cpus.committedOps            2342881176                       # Number of Ops (including micro ops) Simulated
system.switch_cpus.cpi                       0.936403                       # CPI: Cycles Per Instruction
system.switch_cpus.cpi_total                 0.936403                       # CPI: Total CPI of All Threads
system.switch_cpus.idleCycles                97319560                       # Total number of cycles that the CPU has spent unscheduled due to idling
system.switch_cpus.iew.branchMispredicts     17532977                       # Number of branch mispredicts detected at execute
system.switch_cpus.iew.exec_branches        464928817                       # Number of branches executed
system.switch_cpus.iew.exec_nop               6613403                       # number of nop insts executed
system.switch_cpus.iew.exec_rate             1.415105                       # Inst execution rate
system.switch_cpus.iew.exec_refs            969383725                       # number of memory reference insts executed
system.switch_cpus.iew.exec_stores          348276052                       # Number of stores executed
system.switch_cpus.iew.exec_swp                     0                       # number of swp insts executed
system.switch_cpus.iew.iewBlockCycles       137600776                       # Number of cycles IEW is blocking
system.switch_cpus.iew.iewDispLoadInsts     615422156                       # Number of dispatched load instructions
system.switch_cpus.iew.iewDispNonSpecInsts       224108                       # Number of dispatched non-speculative instructions
system.switch_cpus.iew.iewDispSquashedInsts      4278310                       # Number of squashed instructions skipped by dispatch
system.switch_cpus.iew.iewDispStoreInsts    371026273                       # Number of dispatched store instructions
system.switch_cpus.iew.iewDispatchedInsts   2771248126                       # Number of instructions dispatched to IQ
system.switch_cpus.iew.iewExecLoadInsts     621107673                       # Number of load instructions executed
system.switch_cpus.iew.iewExecSquashedInsts     22925996                       # Number of squashed instructions skipped in execute
system.switch_cpus.iew.iewExecutedInsts    2650216242                       # Number of executed instructions
system.switch_cpus.iew.iewIQFullEvents        2636946                       # Number of times the IQ has become full, causing a stall
system.switch_cpus.iew.iewIdleCycles                0                       # Number of cycles IEW is idle
system.switch_cpus.iew.iewLSQFullEvents     112924906                       # Number of times the LSQ has become full, causing a stall
system.switch_cpus.iew.iewSquashCycles       16196904                       # Number of cycles IEW is squashing
system.switch_cpus.iew.iewUnblockCycles     116842171                       # Number of cycles IEW is unblocking
system.switch_cpus.iew.memOrderViolationEvents       383250                       # Number of memory order violations
system.switch_cpus.iew.predictedNotTakenIncorrect     10857303                       # Number of branches that were predicted not taken incorrectly
system.switch_cpus.iew.predictedTakenIncorrect      6675674                       # Number of branches that were predicted taken incorrectly
system.switch_cpus.iew.wb_consumers        2432581540                       # num instructions consuming a value
system.switch_cpus.iew.wb_count            2587106056                       # cumulative count of insts written-back
system.switch_cpus.iew.wb_fanout             0.568764                       # average fanout of values written-back
system.switch_cpus.iew.wb_producers        1383563678                       # num instructions producing a value
system.switch_cpus.iew.wb_rate               1.381406                       # insts written-back per cycle
system.switch_cpus.iew.wb_sent             2593715957                       # cumulative count of insts sent to commit
system.switch_cpus.int_regfile_reads       2979749332                       # number of integer regfile reads
system.switch_cpus.int_regfile_writes      1908130430                       # number of integer regfile writes
system.switch_cpus.ipc                       1.067916                       # IPC: Instructions Per Cycle
system.switch_cpus.ipc_total                 1.067916                       # IPC: Total IPC of All Threads
system.switch_cpus.iq.FU_type_0::No_OpClass        88001      0.00%      0.00% # Type of FU issued
system.switch_cpus.iq.FU_type_0::IntAlu    1678234309     62.78%     62.78% # Type of FU issued
system.switch_cpus.iq.FU_type_0::IntMult      5443283      0.20%     62.99% # Type of FU issued
system.switch_cpus.iq.FU_type_0::IntDiv        712330      0.03%     63.01% # Type of FU issued
system.switch_cpus.iq.FU_type_0::FloatAdd            0      0.00%     63.01% # Type of FU issued
system.switch_cpus.iq.FU_type_0::FloatCmp            0      0.00%     63.01% # Type of FU issued
system.switch_cpus.iq.FU_type_0::FloatCvt            0      0.00%     63.01% # Type of FU issued
system.switch_cpus.iq.FU_type_0::FloatMult            0      0.00%     63.01% # Type of FU issued
system.switch_cpus.iq.FU_type_0::FloatMultAcc            0      0.00%     63.01% # Type of FU issued
system.switch_cpus.iq.FU_type_0::FloatDiv            0      0.00%     63.01% # Type of FU issued
system.switch_cpus.iq.FU_type_0::FloatMisc      1934836      0.07%     63.09% # Type of FU issued
system.switch_cpus.iq.FU_type_0::FloatSqrt            0      0.00%     63.09% # Type of FU issued
system.switch_cpus.iq.FU_type_0::SimdAdd      2410194      0.09%     63.18% # Type of FU issued
system.switch_cpus.iq.FU_type_0::SimdAddAcc            1      0.00%     63.18% # Type of FU issued
system.switch_cpus.iq.FU_type_0::SimdAlu       176251      0.01%     63.18% # Type of FU issued
system.switch_cpus.iq.FU_type_0::SimdCmp       114787      0.00%     63.19% # Type of FU issued
system.switch_cpus.iq.FU_type_0::SimdCvt            0      0.00%     63.19% # Type of FU issued
system.switch_cpus.iq.FU_type_0::SimdMisc      3622806      0.14%     63.32% # Type of FU issued
system.switch_cpus.iq.FU_type_0::SimdMult            0      0.00%     63.32% # Type of FU issued
system.switch_cpus.iq.FU_type_0::SimdMultAcc           15      0.00%     63.32% # Type of FU issued
system.switch_cpus.iq.FU_type_0::SimdShift         8083      0.00%     63.32% # Type of FU issued
system.switch_cpus.iq.FU_type_0::SimdShiftAcc            0      0.00%     63.32% # Type of FU issued
system.switch_cpus.iq.FU_type_0::SimdDiv            0      0.00%     63.32% # Type of FU issued
system.switch_cpus.iq.FU_type_0::SimdSqrt            0      0.00%     63.32% # Type of FU issued
system.switch_cpus.iq.FU_type_0::SimdFloatAdd            0      0.00%     63.32% # Type of FU issued
system.switch_cpus.iq.FU_type_0::SimdFloatAlu            0      0.00%     63.32% # Type of FU issued
system.switch_cpus.iq.FU_type_0::SimdFloatCmp            0      0.00%     63.32% # Type of FU issued
system.switch_cpus.iq.FU_type_0::SimdFloatCvt            0      0.00%     63.32% # Type of FU issued
system.switch_cpus.iq.FU_type_0::SimdFloatDiv            0      0.00%     63.32% # Type of FU issued
system.switch_cpus.iq.FU_type_0::SimdFloatMisc            0      0.00%     63.32% # Type of FU issued
system.switch_cpus.iq.FU_type_0::SimdFloatMult            2      0.00%     63.32% # Type of FU issued
system.switch_cpus.iq.FU_type_0::SimdFloatMultAcc            5      0.00%     63.32% # Type of FU issued
system.switch_cpus.iq.FU_type_0::SimdFloatSqrt            0      0.00%     63.32% # Type of FU issued
system.switch_cpus.iq.FU_type_0::SimdReduceAdd            0      0.00%     63.32% # Type of FU issued
system.switch_cpus.iq.FU_type_0::SimdReduceAlu            0      0.00%     63.32% # Type of FU issued
system.switch_cpus.iq.FU_type_0::SimdReduceCmp            0      0.00%     63.32% # Type of FU issued
system.switch_cpus.iq.FU_type_0::SimdFloatReduceAdd            0      0.00%     63.32% # Type of FU issued
system.switch_cpus.iq.FU_type_0::SimdFloatReduceCmp            0      0.00%     63.32% # Type of FU issued
system.switch_cpus.iq.FU_type_0::SimdAes            0      0.00%     63.32% # Type of FU issued
system.switch_cpus.iq.FU_type_0::SimdAesMix            0      0.00%     63.32% # Type of FU issued
system.switch_cpus.iq.FU_type_0::SimdSha1Hash            0      0.00%     63.32% # Type of FU issued
system.switch_cpus.iq.FU_type_0::SimdSha1Hash2            0      0.00%     63.32% # Type of FU issued
system.switch_cpus.iq.FU_type_0::SimdSha256Hash            0      0.00%     63.32% # Type of FU issued
system.switch_cpus.iq.FU_type_0::SimdSha256Hash2            0      0.00%     63.32% # Type of FU issued
system.switch_cpus.iq.FU_type_0::SimdShaSigma2            0      0.00%     63.32% # Type of FU issued
system.switch_cpus.iq.FU_type_0::SimdShaSigma3            0      0.00%     63.32% # Type of FU issued
system.switch_cpus.iq.FU_type_0::SimdPredAlu            0      0.00%     63.32% # Type of FU issued
system.switch_cpus.iq.FU_type_0::MemRead    628215721     23.50%     86.83% # Type of FU issued
system.switch_cpus.iq.FU_type_0::MemWrite    352181616     13.17%    100.00% # Type of FU issued
system.switch_cpus.iq.FU_type_0::FloatMemRead            0      0.00%    100.00% # Type of FU issued
system.switch_cpus.iq.FU_type_0::FloatMemWrite            0      0.00%    100.00% # Type of FU issued
system.switch_cpus.iq.FU_type_0::IprAccess            0      0.00%    100.00% # Type of FU issued
system.switch_cpus.iq.FU_type_0::InstPrefetch            0      0.00%    100.00% # Type of FU issued
system.switch_cpus.iq.FU_type_0::total     2673142240                       # Type of FU issued
system.switch_cpus.iq.fp_alu_accesses               0                       # Number of floating point alu accesses
system.switch_cpus.iq.fp_inst_queue_reads            0                       # Number of floating instruction queue reads
system.switch_cpus.iq.fp_inst_queue_wakeup_accesses            0                       # Number of floating instruction queue wakeup accesses
system.switch_cpus.iq.fp_inst_queue_writes            0                       # Number of floating instruction queue writes
system.switch_cpus.iq.fu_busy_cnt            49944752                       # FU busy when requested
system.switch_cpus.iq.fu_busy_rate           0.018684                       # FU busy rate (busy events/executed inst)
system.switch_cpus.iq.fu_full::No_OpClass            0      0.00%      0.00% # attempts to use FU when none available
system.switch_cpus.iq.fu_full::IntAlu        15578860     31.19%     31.19% # attempts to use FU when none available
system.switch_cpus.iq.fu_full::IntMult          41603      0.08%     31.28% # attempts to use FU when none available
system.switch_cpus.iq.fu_full::IntDiv          254209      0.51%     31.78% # attempts to use FU when none available
system.switch_cpus.iq.fu_full::FloatAdd             0      0.00%     31.78% # attempts to use FU when none available
system.switch_cpus.iq.fu_full::FloatCmp             0      0.00%     31.78% # attempts to use FU when none available
system.switch_cpus.iq.fu_full::FloatCvt             0      0.00%     31.78% # attempts to use FU when none available
system.switch_cpus.iq.fu_full::FloatMult            0      0.00%     31.78% # attempts to use FU when none available
system.switch_cpus.iq.fu_full::FloatMultAcc            0      0.00%     31.78% # attempts to use FU when none available
system.switch_cpus.iq.fu_full::FloatDiv             0      0.00%     31.78% # attempts to use FU when none available
system.switch_cpus.iq.fu_full::FloatMisc            0      0.00%     31.78% # attempts to use FU when none available
system.switch_cpus.iq.fu_full::FloatSqrt            0      0.00%     31.78% # attempts to use FU when none available
system.switch_cpus.iq.fu_full::SimdAdd              0      0.00%     31.78% # attempts to use FU when none available
system.switch_cpus.iq.fu_full::SimdAddAcc            0      0.00%     31.78% # attempts to use FU when none available
system.switch_cpus.iq.fu_full::SimdAlu              0      0.00%     31.78% # attempts to use FU when none available
system.switch_cpus.iq.fu_full::SimdCmp              0      0.00%     31.78% # attempts to use FU when none available
system.switch_cpus.iq.fu_full::SimdCvt              0      0.00%     31.78% # attempts to use FU when none available
system.switch_cpus.iq.fu_full::SimdMisc             0      0.00%     31.78% # attempts to use FU when none available
system.switch_cpus.iq.fu_full::SimdMult             0      0.00%     31.78% # attempts to use FU when none available
system.switch_cpus.iq.fu_full::SimdMultAcc            0      0.00%     31.78% # attempts to use FU when none available
system.switch_cpus.iq.fu_full::SimdShift            0      0.00%     31.78% # attempts to use FU when none available
system.switch_cpus.iq.fu_full::SimdShiftAcc            0      0.00%     31.78% # attempts to use FU when none available
system.switch_cpus.iq.fu_full::SimdDiv              0      0.00%     31.78% # attempts to use FU when none available
system.switch_cpus.iq.fu_full::SimdSqrt             0      0.00%     31.78% # attempts to use FU when none available
system.switch_cpus.iq.fu_full::SimdFloatAdd            0      0.00%     31.78% # attempts to use FU when none available
system.switch_cpus.iq.fu_full::SimdFloatAlu            0      0.00%     31.78% # attempts to use FU when none available
system.switch_cpus.iq.fu_full::SimdFloatCmp            0      0.00%     31.78% # attempts to use FU when none available
system.switch_cpus.iq.fu_full::SimdFloatCvt            0      0.00%     31.78% # attempts to use FU when none available
system.switch_cpus.iq.fu_full::SimdFloatDiv            0      0.00%     31.78% # attempts to use FU when none available
system.switch_cpus.iq.fu_full::SimdFloatMisc            0      0.00%     31.78% # attempts to use FU when none available
system.switch_cpus.iq.fu_full::SimdFloatMult            0      0.00%     31.78% # attempts to use FU when none available
system.switch_cpus.iq.fu_full::SimdFloatMultAcc            0      0.00%     31.78% # attempts to use FU when none available
system.switch_cpus.iq.fu_full::SimdFloatSqrt            0      0.00%     31.78% # attempts to use FU when none available
system.switch_cpus.iq.fu_full::SimdReduceAdd            0      0.00%     31.78% # attempts to use FU when none available
system.switch_cpus.iq.fu_full::SimdReduceAlu            0      0.00%     31.78% # attempts to use FU when none available
system.switch_cpus.iq.fu_full::SimdReduceCmp            0      0.00%     31.78% # attempts to use FU when none available
system.switch_cpus.iq.fu_full::SimdFloatReduceAdd            0      0.00%     31.78% # attempts to use FU when none available
system.switch_cpus.iq.fu_full::SimdFloatReduceCmp            0      0.00%     31.78% # attempts to use FU when none available
system.switch_cpus.iq.fu_full::SimdAes              0      0.00%     31.78% # attempts to use FU when none available
system.switch_cpus.iq.fu_full::SimdAesMix            0      0.00%     31.78% # attempts to use FU when none available
system.switch_cpus.iq.fu_full::SimdSha1Hash            0      0.00%     31.78% # attempts to use FU when none available
system.switch_cpus.iq.fu_full::SimdSha1Hash2            0      0.00%     31.78% # attempts to use FU when none available
system.switch_cpus.iq.fu_full::SimdSha256Hash            0      0.00%     31.78% # attempts to use FU when none available
system.switch_cpus.iq.fu_full::SimdSha256Hash2            0      0.00%     31.78% # attempts to use FU when none available
system.switch_cpus.iq.fu_full::SimdShaSigma2            0      0.00%     31.78% # attempts to use FU when none available
system.switch_cpus.iq.fu_full::SimdShaSigma3            0      0.00%     31.78% # attempts to use FU when none available
system.switch_cpus.iq.fu_full::SimdPredAlu            0      0.00%     31.78% # attempts to use FU when none available
system.switch_cpus.iq.fu_full::MemRead       19537551     39.12%     70.90% # attempts to use FU when none available
system.switch_cpus.iq.fu_full::MemWrite      14532529     29.10%    100.00% # attempts to use FU when none available
system.switch_cpus.iq.fu_full::FloatMemRead            0      0.00%    100.00% # attempts to use FU when none available
system.switch_cpus.iq.fu_full::FloatMemWrite            0      0.00%    100.00% # attempts to use FU when none available
system.switch_cpus.iq.fu_full::IprAccess            0      0.00%    100.00% # attempts to use FU when none available
system.switch_cpus.iq.fu_full::InstPrefetch            0      0.00%    100.00% # attempts to use FU when none available
system.switch_cpus.iq.int_alu_accesses     2691101285                       # Number of integer alu accesses
system.switch_cpus.iq.int_inst_queue_reads   7110971326                       # Number of integer instruction queue reads
system.switch_cpus.iq.int_inst_queue_wakeup_accesses   2558265065                       # Number of integer instruction queue wakeup accesses
system.switch_cpus.iq.int_inst_queue_writes   3145274065                       # Number of integer instruction queue writes
system.switch_cpus.iq.iqInstsAdded         2764410615                       # Number of instructions added to the IQ (excludes non-spec)
system.switch_cpus.iq.iqInstsIssued        2673142240                       # Number of instructions issued
system.switch_cpus.iq.iqNonSpecInstsAdded       224108                       # Number of non-speculative instructions added to the IQ
system.switch_cpus.iq.iqSquashedInstsExamined    421753519                       # Number of squashed instructions iterated over during squash; mainly for profiling
system.switch_cpus.iq.iqSquashedInstsIssued      1692456                       # Number of squashed instructions issued
system.switch_cpus.iq.iqSquashedNonSpecRemoved        79454                       # Number of squashed non-spec instructions that were removed
system.switch_cpus.iq.iqSquashedOperandsExamined    274463167                       # Number of squashed operands that are examined and possibly removed from graph
system.switch_cpus.iq.issued_per_cycle::samples   1775486251                       # Number of insts issued each cycle
system.switch_cpus.iq.issued_per_cycle::mean     1.505583                       # Number of insts issued each cycle
system.switch_cpus.iq.issued_per_cycle::stdev     2.060574                       # Number of insts issued each cycle
system.switch_cpus.iq.issued_per_cycle::underflows            0      0.00%      0.00% # Number of insts issued each cycle
system.switch_cpus.iq.issued_per_cycle::0    923618792     52.02%     52.02% # Number of insts issued each cycle
system.switch_cpus.iq.issued_per_cycle::1    213130156     12.00%     64.02% # Number of insts issued each cycle
system.switch_cpus.iq.issued_per_cycle::2    179601890     10.12%     74.14% # Number of insts issued each cycle
system.switch_cpus.iq.issued_per_cycle::3    141753553      7.98%     82.12% # Number of insts issued each cycle
system.switch_cpus.iq.issued_per_cycle::4    116197415      6.54%     88.67% # Number of insts issued each cycle
system.switch_cpus.iq.issued_per_cycle::5     80056471      4.51%     93.18% # Number of insts issued each cycle
system.switch_cpus.iq.issued_per_cycle::6     60714887      3.42%     96.60% # Number of insts issued each cycle
system.switch_cpus.iq.issued_per_cycle::7     37118388      2.09%     98.69% # Number of insts issued each cycle
system.switch_cpus.iq.issued_per_cycle::8     23294699      1.31%    100.00% # Number of insts issued each cycle
system.switch_cpus.iq.issued_per_cycle::overflows            0      0.00%    100.00% # Number of insts issued each cycle
system.switch_cpus.iq.issued_per_cycle::min_value            0                       # Number of insts issued each cycle
system.switch_cpus.iq.issued_per_cycle::max_value            8                       # Number of insts issued each cycle
system.switch_cpus.iq.issued_per_cycle::total   1775486251                       # Number of insts issued each cycle
system.switch_cpus.iq.rate                   1.427346                       # Inst issue rate
system.switch_cpus.iq.vec_alu_accesses       31897706                       # Number of vector alu accesses
system.switch_cpus.iq.vec_inst_queue_reads     62436611                       # Number of vector instruction queue reads
system.switch_cpus.iq.vec_inst_queue_wakeup_accesses     28840991                       # Number of vector instruction queue wakeup accesses
system.switch_cpus.iq.vec_inst_queue_writes     41468808                       # Number of vector instruction queue writes
system.switch_cpus.memDep0.conflictingLoads     32718672                       # Number of conflicting loads.
system.switch_cpus.memDep0.conflictingStores     53959693                       # Number of conflicting stores.
system.switch_cpus.memDep0.insertedLoads    615422156                       # Number of loads inserted to the mem dependence unit.
system.switch_cpus.memDep0.insertedStores    371026273                       # Number of stores inserted to the mem dependence unit.
system.switch_cpus.misc_regfile_reads      6857470170                       # number of misc regfile reads
system.switch_cpus.misc_regfile_writes         144461                       # number of misc regfile writes
system.switch_cpus.numCycles               1872805811                       # number of cpu cycles simulated
system.switch_cpus.numWorkItemsCompleted            0                       # number of work items this cpu completed
system.switch_cpus.numWorkItemsStarted              0                       # number of work items this cpu started
system.switch_cpus.pred_regfile_reads          181899                       # number of predicate regfile reads
system.switch_cpus.pred_regfile_writes          97992                       # number of predicate regfile writes
system.switch_cpus.timesIdled                11634324                       # Number of times that the entire CPU went into an idle state and unscheduled itself
system.switch_cpus.vec_regfile_reads         25597921                       # number of vector regfile reads
system.switch_cpus.vec_regfile_writes        10534558                       # number of vector regfile writes
system.tol2bus.snoop_filter.hit_multi_requests        92626                       # Number of requests hitting in the snoop filter with multiple (>1) holders of the requested data.
system.tol2bus.snoop_filter.hit_multi_snoops          483                       # Number of snoops hitting in the snoop filter with multiple (>1) holders of the requested data.
system.tol2bus.snoop_filter.hit_single_requests     46434393                       # Number of requests hitting in the snoop filter with a single holder of the requested data.
system.tol2bus.snoop_filter.hit_single_snoops      4394522                       # Number of snoops hitting in the snoop filter with a single holder of the requested data.
system.tol2bus.snoop_filter.tot_requests     88665050                       # Total number of requests made to the snoop filter.
system.tol2bus.snoop_filter.tot_snoops        4395005                       # Total number of snoops made to the snoop filter.
system.clk_domain.clock                          1000                       # Clock period in ticks
system.cpu.dcache.demand_hits::.cpu.data            1                       # number of demand (read+write) hits
system.cpu.dcache.demand_hits::.switch_cpus.data    796926037                       # number of demand (read+write) hits
system.cpu.dcache.demand_hits::total        796926038                       # number of demand (read+write) hits
system.cpu.dcache.overall_hits::.cpu.data            1                       # number of overall hits
system.cpu.dcache.overall_hits::.switch_cpus.data    796926043                       # number of overall hits
system.cpu.dcache.overall_hits::total       796926044                       # number of overall hits
system.cpu.dcache.demand_misses::.cpu.data            3                       # number of demand (read+write) misses
system.cpu.dcache.demand_misses::.switch_cpus.data     61169258                       # number of demand (read+write) misses
system.cpu.dcache.demand_misses::total       61169261                       # number of demand (read+write) misses
system.cpu.dcache.overall_misses::.cpu.data            3                       # number of overall misses
system.cpu.dcache.overall_misses::.switch_cpus.data     61169283                       # number of overall misses
system.cpu.dcache.overall_misses::total      61169286                       # number of overall misses
system.cpu.dcache.demand_miss_latency::.switch_cpus.data 1779836295210                       # number of demand (read+write) miss cycles
system.cpu.dcache.demand_miss_latency::total 1779836295210                       # number of demand (read+write) miss cycles
system.cpu.dcache.overall_miss_latency::.switch_cpus.data 1779836295210                       # number of overall miss cycles
system.cpu.dcache.overall_miss_latency::total 1779836295210                       # number of overall miss cycles
system.cpu.dcache.demand_accesses::.cpu.data            4                       # number of demand (read+write) accesses
system.cpu.dcache.demand_accesses::.switch_cpus.data    858095295                       # number of demand (read+write) accesses
system.cpu.dcache.demand_accesses::total    858095299                       # number of demand (read+write) accesses
system.cpu.dcache.overall_accesses::.cpu.data            4                       # number of overall (read+write) accesses
system.cpu.dcache.overall_accesses::.switch_cpus.data    858095326                       # number of overall (read+write) accesses
system.cpu.dcache.overall_accesses::total    858095330                       # number of overall (read+write) accesses
system.cpu.dcache.demand_miss_rate::.cpu.data     0.750000                       # miss rate for demand accesses
system.cpu.dcache.demand_miss_rate::.switch_cpus.data     0.071285                       # miss rate for demand accesses
system.cpu.dcache.demand_miss_rate::total     0.071285                       # miss rate for demand accesses
system.cpu.dcache.overall_miss_rate::.cpu.data     0.750000                       # miss rate for overall accesses
system.cpu.dcache.overall_miss_rate::.switch_cpus.data     0.071285                       # miss rate for overall accesses
system.cpu.dcache.overall_miss_rate::total     0.071285                       # miss rate for overall accesses
system.cpu.dcache.demand_avg_miss_latency::.switch_cpus.data 29096.908372                       # average overall miss latency
system.cpu.dcache.demand_avg_miss_latency::total 29096.906945                       # average overall miss latency
system.cpu.dcache.overall_avg_miss_latency::.switch_cpus.data 29096.896480                       # average overall miss latency
system.cpu.dcache.overall_avg_miss_latency::total 29096.895053                       # average overall miss latency
system.cpu.dcache.blocked_cycles::no_mshrs     44214084                       # number of cycles access was blocked
system.cpu.dcache.blocked_cycles::no_targets        11625                       # number of cycles access was blocked
system.cpu.dcache.blocked::no_mshrs           3358307                       # number of cycles access was blocked
system.cpu.dcache.blocked::no_targets             339                       # number of cycles access was blocked
system.cpu.dcache.avg_blocked_cycles::no_mshrs    13.165587                       # average number of cycles each access was blocked
system.cpu.dcache.avg_blocked_cycles::no_targets    34.292035                       # average number of cycles each access was blocked
system.cpu.dcache.ghost_timestamp_misses        35697                       # number of times timestamp policy causes a block to be inaccessible
system.cpu.dcache.ghost_commits              17318888                       # number of cache lines moved from ghost to main
system.cpu.dcache.same_leapfrogs               370892                       # number of times leapfrogging occurs with a shared MSHR request
system.cpu.dcache.writebacks::.writebacks     38488046                       # number of writebacks
system.cpu.dcache.writebacks::total          38488046                       # number of writebacks
system.cpu.dcache.demand_mshr_hits::.switch_cpus.data     32511055                       # number of demand (read+write) MSHR hits
system.cpu.dcache.demand_mshr_hits::total     32511055                       # number of demand (read+write) MSHR hits
system.cpu.dcache.overall_mshr_hits::.switch_cpus.data     32511055                       # number of overall MSHR hits
system.cpu.dcache.overall_mshr_hits::total     32511055                       # number of overall MSHR hits
system.cpu.dcache.demand_mshr_misses::.switch_cpus.data     28658203                       # number of demand (read+write) MSHR misses
system.cpu.dcache.demand_mshr_misses::total     28658203                       # number of demand (read+write) MSHR misses
system.cpu.dcache.overall_mshr_misses::.switch_cpus.data     28658228                       # number of overall MSHR misses
system.cpu.dcache.overall_mshr_misses::total     28658228                       # number of overall MSHR misses
system.cpu.dcache.demand_mshr_miss_latency::.switch_cpus.data 692337852279                       # number of demand (read+write) MSHR miss cycles
system.cpu.dcache.demand_mshr_miss_latency::total 692337852279                       # number of demand (read+write) MSHR miss cycles
system.cpu.dcache.overall_mshr_miss_latency::.switch_cpus.data 692339976779                       # number of overall MSHR miss cycles
system.cpu.dcache.overall_mshr_miss_latency::total 692339976779                       # number of overall MSHR miss cycles
system.cpu.dcache.demand_mshr_miss_rate::.switch_cpus.data     0.033397                       # mshr miss rate for demand accesses
system.cpu.dcache.demand_mshr_miss_rate::total     0.033397                       # mshr miss rate for demand accesses
system.cpu.dcache.overall_mshr_miss_rate::.switch_cpus.data     0.033397                       # mshr miss rate for overall accesses
system.cpu.dcache.overall_mshr_miss_rate::total     0.033397                       # mshr miss rate for overall accesses
system.cpu.dcache.demand_avg_mshr_miss_latency::.switch_cpus.data 24158.453071                       # average overall mshr miss latency
system.cpu.dcache.demand_avg_mshr_miss_latency::total 24158.453071                       # average overall mshr miss latency
system.cpu.dcache.overall_avg_mshr_miss_latency::.switch_cpus.data 24158.506129                       # average overall mshr miss latency
system.cpu.dcache.overall_avg_mshr_miss_latency::total 24158.506129                       # average overall mshr miss latency
system.cpu.dcache.replacements               21203952                       # number of replacements
system.cpu.dcache.ReadReq_hits::.switch_cpus.data    503401624                       # number of ReadReq hits
system.cpu.dcache.ReadReq_hits::total       503401624                       # number of ReadReq hits
system.cpu.dcache.ReadReq_misses::.cpu.data            2                       # number of ReadReq misses
system.cpu.dcache.ReadReq_misses::.switch_cpus.data     39146792                       # number of ReadReq misses
system.cpu.dcache.ReadReq_misses::total      39146794                       # number of ReadReq misses
system.cpu.dcache.ReadReq_miss_latency::.switch_cpus.data 928082459000                       # number of ReadReq miss cycles
system.cpu.dcache.ReadReq_miss_latency::total 928082459000                       # number of ReadReq miss cycles
system.cpu.dcache.ReadReq_accesses::.cpu.data            2                       # number of ReadReq accesses(hits+misses)
system.cpu.dcache.ReadReq_accesses::.switch_cpus.data    542548416                       # number of ReadReq accesses(hits+misses)
system.cpu.dcache.ReadReq_accesses::total    542548418                       # number of ReadReq accesses(hits+misses)
system.cpu.dcache.ReadReq_miss_rate::.cpu.data            1                       # miss rate for ReadReq accesses
system.cpu.dcache.ReadReq_miss_rate::.switch_cpus.data     0.072154                       # miss rate for ReadReq accesses
system.cpu.dcache.ReadReq_miss_rate::total     0.072154                       # miss rate for ReadReq accesses
system.cpu.dcache.ReadReq_avg_miss_latency::.switch_cpus.data 23707.752579                       # average ReadReq miss latency
system.cpu.dcache.ReadReq_avg_miss_latency::total 23707.751368                       # average ReadReq miss latency
system.cpu.dcache.ReadReq_mshr_hits::.switch_cpus.data     17967335                       # number of ReadReq MSHR hits
system.cpu.dcache.ReadReq_mshr_hits::total     17967335                       # number of ReadReq MSHR hits
system.cpu.dcache.ReadReq_mshr_misses::.switch_cpus.data     21179457                       # number of ReadReq MSHR misses
system.cpu.dcache.ReadReq_mshr_misses::total     21179457                       # number of ReadReq MSHR misses
system.cpu.dcache.ReadReq_mshr_miss_latency::.switch_cpus.data 480338398000                       # number of ReadReq MSHR miss cycles
system.cpu.dcache.ReadReq_mshr_miss_latency::total 480338398000                       # number of ReadReq MSHR miss cycles
system.cpu.dcache.ReadReq_mshr_miss_rate::.switch_cpus.data     0.039037                       # mshr miss rate for ReadReq accesses
system.cpu.dcache.ReadReq_mshr_miss_rate::total     0.039037                       # mshr miss rate for ReadReq accesses
system.cpu.dcache.ReadReq_avg_mshr_miss_latency::.switch_cpus.data 22679.448203                       # average ReadReq mshr miss latency
system.cpu.dcache.ReadReq_avg_mshr_miss_latency::total 22679.448203                       # average ReadReq mshr miss latency
system.cpu.dcache.WriteReq_hits::.cpu.data            1                       # number of WriteReq hits
system.cpu.dcache.WriteReq_hits::.switch_cpus.data    293321280                       # number of WriteReq hits
system.cpu.dcache.WriteReq_hits::total      293321281                       # number of WriteReq hits
system.cpu.dcache.WriteReq_misses::.cpu.data            1                       # number of WriteReq misses
system.cpu.dcache.WriteReq_misses::.switch_cpus.data     21325619                       # number of WriteReq misses
system.cpu.dcache.WriteReq_misses::total     21325620                       # number of WriteReq misses
system.cpu.dcache.WriteReq_miss_latency::.switch_cpus.data 835049100288                       # number of WriteReq miss cycles
system.cpu.dcache.WriteReq_miss_latency::total 835049100288                       # number of WriteReq miss cycles
system.cpu.dcache.WriteReq_accesses::.cpu.data            2                       # number of WriteReq accesses(hits+misses)
system.cpu.dcache.WriteReq_accesses::.switch_cpus.data    314646899                       # number of WriteReq accesses(hits+misses)
system.cpu.dcache.WriteReq_accesses::total    314646901                       # number of WriteReq accesses(hits+misses)
system.cpu.dcache.WriteReq_miss_rate::.cpu.data     0.500000                       # miss rate for WriteReq accesses
system.cpu.dcache.WriteReq_miss_rate::.switch_cpus.data     0.067776                       # miss rate for WriteReq accesses
system.cpu.dcache.WriteReq_miss_rate::total     0.067776                       # miss rate for WriteReq accesses
system.cpu.dcache.WriteReq_avg_miss_latency::.switch_cpus.data 39157.086145                       # average WriteReq miss latency
system.cpu.dcache.WriteReq_avg_miss_latency::total 39157.084309                       # average WriteReq miss latency
system.cpu.dcache.WriteReq_mshr_hits::.switch_cpus.data     14543711                       # number of WriteReq MSHR hits
system.cpu.dcache.WriteReq_mshr_hits::total     14543711                       # number of WriteReq MSHR hits
system.cpu.dcache.WriteReq_mshr_misses::.switch_cpus.data      6781908                       # number of WriteReq MSHR misses
system.cpu.dcache.WriteReq_mshr_misses::total      6781908                       # number of WriteReq MSHR misses
system.cpu.dcache.WriteReq_mshr_miss_latency::.switch_cpus.data 195991612857                       # number of WriteReq MSHR miss cycles
system.cpu.dcache.WriteReq_mshr_miss_latency::total 195991612857                       # number of WriteReq MSHR miss cycles
system.cpu.dcache.WriteReq_mshr_miss_rate::.switch_cpus.data     0.021554                       # mshr miss rate for WriteReq accesses
system.cpu.dcache.WriteReq_mshr_miss_rate::total     0.021554                       # mshr miss rate for WriteReq accesses
system.cpu.dcache.WriteReq_avg_mshr_miss_latency::.switch_cpus.data 28899.184840                       # average WriteReq mshr miss latency
system.cpu.dcache.WriteReq_avg_mshr_miss_latency::total 28899.184840                       # average WriteReq mshr miss latency
system.cpu.dcache.SoftPFReq_hits::.switch_cpus.data            5                       # number of SoftPFReq hits
system.cpu.dcache.SoftPFReq_hits::total             5                       # number of SoftPFReq hits
system.cpu.dcache.SoftPFReq_misses::.switch_cpus.data           20                       # number of SoftPFReq misses
system.cpu.dcache.SoftPFReq_misses::total           20                       # number of SoftPFReq misses
system.cpu.dcache.SoftPFReq_accesses::.switch_cpus.data           25                       # number of SoftPFReq accesses(hits+misses)
system.cpu.dcache.SoftPFReq_accesses::total           25                       # number of SoftPFReq accesses(hits+misses)
system.cpu.dcache.SoftPFReq_miss_rate::.switch_cpus.data     0.800000                       # miss rate for SoftPFReq accesses
system.cpu.dcache.SoftPFReq_miss_rate::total     0.800000                       # miss rate for SoftPFReq accesses
system.cpu.dcache.SoftPFReq_mshr_misses::.switch_cpus.data           20                       # number of SoftPFReq MSHR misses
system.cpu.dcache.SoftPFReq_mshr_misses::total           20                       # number of SoftPFReq MSHR misses
system.cpu.dcache.SoftPFReq_mshr_miss_latency::.switch_cpus.data      1730500                       # number of SoftPFReq MSHR miss cycles
system.cpu.dcache.SoftPFReq_mshr_miss_latency::total      1730500                       # number of SoftPFReq MSHR miss cycles
system.cpu.dcache.SoftPFReq_mshr_miss_rate::.switch_cpus.data     0.800000                       # mshr miss rate for SoftPFReq accesses
system.cpu.dcache.SoftPFReq_mshr_miss_rate::total     0.800000                       # mshr miss rate for SoftPFReq accesses
system.cpu.dcache.SoftPFReq_avg_mshr_miss_latency::.switch_cpus.data        86525                       # average SoftPFReq mshr miss latency
system.cpu.dcache.SoftPFReq_avg_mshr_miss_latency::total        86525                       # average SoftPFReq mshr miss latency
system.cpu.dcache.SoftPFExReq_hits::.switch_cpus.data            1                       # number of SoftPFExReq hits
system.cpu.dcache.SoftPFExReq_hits::total            1                       # number of SoftPFExReq hits
system.cpu.dcache.SoftPFExReq_misses::.switch_cpus.data            5                       # number of SoftPFExReq misses
system.cpu.dcache.SoftPFExReq_misses::total            5                       # number of SoftPFExReq misses
system.cpu.dcache.SoftPFExReq_accesses::.switch_cpus.data            6                       # number of SoftPFExReq accesses(hits+misses)
system.cpu.dcache.SoftPFExReq_accesses::total            6                       # number of SoftPFExReq accesses(hits+misses)
system.cpu.dcache.SoftPFExReq_miss_rate::.switch_cpus.data     0.833333                       # miss rate for SoftPFExReq accesses
system.cpu.dcache.SoftPFExReq_miss_rate::total     0.833333                       # miss rate for SoftPFExReq accesses
system.cpu.dcache.SoftPFExReq_mshr_misses::.switch_cpus.data            5                       # number of SoftPFExReq MSHR misses
system.cpu.dcache.SoftPFExReq_mshr_misses::total            5                       # number of SoftPFExReq MSHR misses
system.cpu.dcache.SoftPFExReq_mshr_miss_latency::.switch_cpus.data       394000                       # number of SoftPFExReq MSHR miss cycles
system.cpu.dcache.SoftPFExReq_mshr_miss_latency::total       394000                       # number of SoftPFExReq MSHR miss cycles
system.cpu.dcache.SoftPFExReq_mshr_miss_rate::.switch_cpus.data     0.833333                       # mshr miss rate for SoftPFExReq accesses
system.cpu.dcache.SoftPFExReq_mshr_miss_rate::total     0.833333                       # mshr miss rate for SoftPFExReq accesses
system.cpu.dcache.SoftPFExReq_avg_mshr_miss_latency::.switch_cpus.data        78800                       # average SoftPFExReq mshr miss latency
system.cpu.dcache.SoftPFExReq_avg_mshr_miss_latency::total        78800                       # average SoftPFExReq mshr miss latency
system.cpu.dcache.WriteLineReq_hits::.switch_cpus.data       203133                       # number of WriteLineReq hits
system.cpu.dcache.WriteLineReq_hits::total       203133                       # number of WriteLineReq hits
system.cpu.dcache.WriteLineReq_misses::.switch_cpus.data       696847                       # number of WriteLineReq misses
system.cpu.dcache.WriteLineReq_misses::total       696847                       # number of WriteLineReq misses
system.cpu.dcache.WriteLineReq_miss_latency::.switch_cpus.data  16704735922                       # number of WriteLineReq miss cycles
system.cpu.dcache.WriteLineReq_miss_latency::total  16704735922                       # number of WriteLineReq miss cycles
system.cpu.dcache.WriteLineReq_accesses::.switch_cpus.data       899980                       # number of WriteLineReq accesses(hits+misses)
system.cpu.dcache.WriteLineReq_accesses::total       899980                       # number of WriteLineReq accesses(hits+misses)
system.cpu.dcache.WriteLineReq_miss_rate::.switch_cpus.data     0.774292                       # miss rate for WriteLineReq accesses
system.cpu.dcache.WriteLineReq_miss_rate::total     0.774292                       # miss rate for WriteLineReq accesses
system.cpu.dcache.WriteLineReq_avg_miss_latency::.switch_cpus.data 23971.884678                       # average WriteLineReq miss latency
system.cpu.dcache.WriteLineReq_avg_miss_latency::total 23971.884678                       # average WriteLineReq miss latency
system.cpu.dcache.WriteLineReq_mshr_hits::.switch_cpus.data            9                       # number of WriteLineReq MSHR hits
system.cpu.dcache.WriteLineReq_mshr_hits::total            9                       # number of WriteLineReq MSHR hits
system.cpu.dcache.WriteLineReq_mshr_misses::.switch_cpus.data       696838                       # number of WriteLineReq MSHR misses
system.cpu.dcache.WriteLineReq_mshr_misses::total       696838                       # number of WriteLineReq MSHR misses
system.cpu.dcache.WriteLineReq_mshr_miss_latency::.switch_cpus.data  16007841422                       # number of WriteLineReq MSHR miss cycles
system.cpu.dcache.WriteLineReq_mshr_miss_latency::total  16007841422                       # number of WriteLineReq MSHR miss cycles
system.cpu.dcache.WriteLineReq_mshr_miss_rate::.switch_cpus.data     0.774282                       # mshr miss rate for WriteLineReq accesses
system.cpu.dcache.WriteLineReq_mshr_miss_rate::total     0.774282                       # mshr miss rate for WriteLineReq accesses
system.cpu.dcache.WriteLineReq_avg_mshr_miss_latency::.switch_cpus.data 22972.113206                       # average WriteLineReq mshr miss latency
system.cpu.dcache.WriteLineReq_avg_mshr_miss_latency::total 22972.113206                       # average WriteLineReq mshr miss latency
system.cpu.dcache.LoadLockedReq_hits::.switch_cpus.data            3                       # number of LoadLockedReq hits
system.cpu.dcache.LoadLockedReq_hits::total            3                       # number of LoadLockedReq hits
system.cpu.dcache.LoadLockedReq_misses::.switch_cpus.data            3                       # number of LoadLockedReq misses
system.cpu.dcache.LoadLockedReq_misses::total            3                       # number of LoadLockedReq misses
system.cpu.dcache.LoadLockedReq_miss_latency::.switch_cpus.data       118500                       # number of LoadLockedReq miss cycles
system.cpu.dcache.LoadLockedReq_miss_latency::total       118500                       # number of LoadLockedReq miss cycles
system.cpu.dcache.LoadLockedReq_accesses::.switch_cpus.data            6                       # number of LoadLockedReq accesses(hits+misses)
system.cpu.dcache.LoadLockedReq_accesses::total            6                       # number of LoadLockedReq accesses(hits+misses)
system.cpu.dcache.LoadLockedReq_miss_rate::.switch_cpus.data     0.500000                       # miss rate for LoadLockedReq accesses
system.cpu.dcache.LoadLockedReq_miss_rate::total     0.500000                       # miss rate for LoadLockedReq accesses
system.cpu.dcache.LoadLockedReq_avg_miss_latency::.switch_cpus.data        39500                       # average LoadLockedReq miss latency
system.cpu.dcache.LoadLockedReq_avg_miss_latency::total        39500                       # average LoadLockedReq miss latency
system.cpu.dcache.LoadLockedReq_mshr_misses::.switch_cpus.data            3                       # number of LoadLockedReq MSHR misses
system.cpu.dcache.LoadLockedReq_mshr_misses::total            3                       # number of LoadLockedReq MSHR misses
system.cpu.dcache.LoadLockedReq_mshr_miss_latency::.switch_cpus.data       115500                       # number of LoadLockedReq MSHR miss cycles
system.cpu.dcache.LoadLockedReq_mshr_miss_latency::total       115500                       # number of LoadLockedReq MSHR miss cycles
system.cpu.dcache.LoadLockedReq_mshr_miss_rate::.switch_cpus.data     0.500000                       # mshr miss rate for LoadLockedReq accesses
system.cpu.dcache.LoadLockedReq_mshr_miss_rate::total     0.500000                       # mshr miss rate for LoadLockedReq accesses
system.cpu.dcache.LoadLockedReq_avg_mshr_miss_latency::.switch_cpus.data        38500                       # average LoadLockedReq mshr miss latency
system.cpu.dcache.LoadLockedReq_avg_mshr_miss_latency::total        38500                       # average LoadLockedReq mshr miss latency
system.cpu.dcache.SwapReq_hits::.switch_cpus.data        71168                       # number of SwapReq hits
system.cpu.dcache.SwapReq_hits::total           71168                       # number of SwapReq hits
system.cpu.dcache.SwapReq_misses::.switch_cpus.data         1062                       # number of SwapReq misses
system.cpu.dcache.SwapReq_misses::total          1062                       # number of SwapReq misses
system.cpu.dcache.SwapReq_miss_latency::.switch_cpus.data     16165500                       # number of SwapReq miss cycles
system.cpu.dcache.SwapReq_miss_latency::total     16165500                       # number of SwapReq miss cycles
system.cpu.dcache.SwapReq_accesses::.switch_cpus.data        72230                       # number of SwapReq accesses(hits+misses)
system.cpu.dcache.SwapReq_accesses::total        72230                       # number of SwapReq accesses(hits+misses)
system.cpu.dcache.SwapReq_miss_rate::.switch_cpus.data     0.014703                       # miss rate for SwapReq accesses
system.cpu.dcache.SwapReq_miss_rate::total     0.014703                       # miss rate for SwapReq accesses
system.cpu.dcache.SwapReq_avg_miss_latency::.switch_cpus.data 15221.751412                       # average SwapReq miss latency
system.cpu.dcache.SwapReq_avg_miss_latency::total 15221.751412                       # average SwapReq miss latency
system.cpu.dcache.SwapReq_mshr_misses::.switch_cpus.data         1062                       # number of SwapReq MSHR misses
system.cpu.dcache.SwapReq_mshr_misses::total         1062                       # number of SwapReq MSHR misses
system.cpu.dcache.SwapReq_mshr_miss_latency::.switch_cpus.data     15103500                       # number of SwapReq MSHR miss cycles
system.cpu.dcache.SwapReq_mshr_miss_latency::total     15103500                       # number of SwapReq MSHR miss cycles
system.cpu.dcache.SwapReq_mshr_miss_rate::.switch_cpus.data     0.014703                       # mshr miss rate for SwapReq accesses
system.cpu.dcache.SwapReq_mshr_miss_rate::total     0.014703                       # mshr miss rate for SwapReq accesses
system.cpu.dcache.SwapReq_avg_mshr_miss_latency::.switch_cpus.data 14221.751412                       # average SwapReq mshr miss latency
system.cpu.dcache.SwapReq_avg_mshr_miss_latency::total 14221.751412                       # average SwapReq mshr miss latency
system.cpu.dcache.ghosttags.tagsinuse    -10277012.455277                       # Cycle average of tags in use
system.cpu.dcache.ghosttags.total_refs              0                       # Total number of references to valid blocks.
system.cpu.dcache.ghosttags.sampled_refs            0                       # Sample count of references to valid blocks.
system.cpu.dcache.ghosttags.avg_refs              nan                       # Average number of references to valid blocks.
system.cpu.dcache.ghosttags.warmup_cycle 5961191698500                       # Cycle when the warmup percentage was hit.
system.cpu.dcache.ghosttags.occ_blocks::.switch_cpus.data 10023486.940143                       # Average occupied blocks per requestor
system.cpu.dcache.ghosttags.occ_percent::.switch_cpus.data 313233.966879                       # Average percentage of cache occupancy
system.cpu.dcache.ghosttags.occ_percent::total 313233.966879                       # Average percentage of cache occupancy
system.cpu.dcache.ghosttags.tag_accesses    138173496                       # Number of tag accesses
system.cpu.dcache.ghosttags.data_accesses    138173496                       # Number of data accesses
system.cpu.dcache.ghosttags.repl_invalid            0                       # Number of initial replacements
system.cpu.dcache.ghosttags.repl_valid_tag            0                       # Number of local replacements
system.cpu.dcache.ghosttags.repl_valid_data            0                       # Number of global replacements
system.cpu.dcache.ghosttags.power_state.pwrStateResidencyTicks::UNDEFINED 6897592340000                       # Cumulative time (in ticks) in various power states
system.cpu.dcache.power_state.pwrStateResidencyTicks::UNDEFINED 6897592340000                       # Cumulative time (in ticks) in various power states
system.cpu.dcache.tags.tagsinuse         -10004721.331320                       # Cycle average of tags in use
system.cpu.dcache.tags.total_refs           846433215                       # Total number of references to valid blocks.
system.cpu.dcache.tags.sampled_refs          41847195                       # Sample count of references to valid blocks.
system.cpu.dcache.tags.avg_refs             20.226761                       # Average number of references to valid blocks.
system.cpu.dcache.tags.warmup_cycle      5961191543000                       # Cycle when the warmup percentage was hit.
system.cpu.dcache.tags.occ_blocks::.cpu.data     0.000306                       # Average occupied blocks per requestor
system.cpu.dcache.tags.occ_blocks::.switch_cpus.data -10004721.331626                       # Average occupied blocks per requestor
system.cpu.dcache.tags.occ_percent::.cpu.data     0.000001                       # Average percentage of cache occupancy
system.cpu.dcache.tags.occ_percent::.switch_cpus.data -19540.471351                       # Average percentage of cache occupancy
system.cpu.dcache.tags.occ_percent::total -19540.471350                       # Average percentage of cache occupancy
system.cpu.dcache.tags.occ_task_id_blocks::1024          512                       # Occupied blocks per task id
system.cpu.dcache.tags.age_task_id_blocks_1024::0           57                       # Occupied blocks per task id
system.cpu.dcache.tags.age_task_id_blocks_1024::1          316                       # Occupied blocks per task id
system.cpu.dcache.tags.age_task_id_blocks_1024::2          139                       # Occupied blocks per task id
system.cpu.dcache.tags.occ_task_id_percent::1024            1                       # Percentage of cache occupancy per task id
system.cpu.dcache.tags.tag_accesses        6886510192                       # Number of tag accesses
system.cpu.dcache.tags.data_accesses       6886510192                       # Number of data accesses
system.cpu.dcache.tags.repl_invalid                 0                       # Number of initial replacements
system.cpu.dcache.tags.repl_valid_tag               0                       # Number of local replacements
system.cpu.dcache.tags.repl_valid_data              0                       # Number of global replacements
system.cpu.dcache.tags.power_state.pwrStateResidencyTicks::UNDEFINED 6897592340000                       # Cumulative time (in ticks) in various power states
system.cpu.dtb.instHits                             0                       # ITB inst hits
system.cpu.dtb.instMisses                           0                       # ITB inst misses
system.cpu.dtb.readHits                             0                       # DTB read hits
system.cpu.dtb.readMisses                           0                       # DTB read misses
system.cpu.dtb.writeHits                            0                       # DTB write hits
system.cpu.dtb.writeMisses                          0                       # DTB write misses
system.cpu.dtb.inserts                              0                       # Number of times an entry is inserted into the TLB
system.cpu.dtb.flushTlb                             2                       # Number of times complete TLB was flushed
system.cpu.dtb.flushTlbMva                          0                       # Number of times TLB was flushed by MVA
system.cpu.dtb.flushTlbMvaAsid                      0                       # Number of times TLB was flushed by MVA & ASID
system.cpu.dtb.flushTlbAsid                         0                       # Number of times TLB was flushed by ASID
system.cpu.dtb.flushedEntries                       0                       # Number of entries that have been flushed from TLB
system.cpu.dtb.alignFaults                          0                       # Number of TLB faults due to alignment restrictions
system.cpu.dtb.prefetchFaults                       0                       # Number of TLB faults due to prefetch
system.cpu.dtb.domainFaults                         0                       # Number of TLB faults due to domain restrictions
system.cpu.dtb.permsFaults                          0                       # Number of TLB faults due to permissions restrictions
system.cpu.dtb.readAccesses                         0                       # DTB read accesses
system.cpu.dtb.writeAccesses                        0                       # DTB write accesses
system.cpu.dtb.instAccesses                         0                       # ITB inst accesses
system.cpu.dtb.hits                                 0                       # Total TLB (inst and data) hits
system.cpu.dtb.misses                               0                       # Total TLB (inst and data) misses
system.cpu.dtb.accesses                             0                       # Total TLB (inst and data) accesses
system.cpu.dtb.stage2_mmu.stage2_tlb.instHits            0                       # ITB inst hits
system.cpu.dtb.stage2_mmu.stage2_tlb.instMisses            0                       # ITB inst misses
system.cpu.dtb.stage2_mmu.stage2_tlb.readHits            0                       # DTB read hits
system.cpu.dtb.stage2_mmu.stage2_tlb.readMisses            0                       # DTB read misses
system.cpu.dtb.stage2_mmu.stage2_tlb.writeHits            0                       # DTB write hits
system.cpu.dtb.stage2_mmu.stage2_tlb.writeMisses            0                       # DTB write misses
system.cpu.dtb.stage2_mmu.stage2_tlb.inserts            0                       # Number of times an entry is inserted into the TLB
system.cpu.dtb.stage2_mmu.stage2_tlb.flushTlb            0                       # Number of times complete TLB was flushed
system.cpu.dtb.stage2_mmu.stage2_tlb.flushTlbMva            0                       # Number of times TLB was flushed by MVA
system.cpu.dtb.stage2_mmu.stage2_tlb.flushTlbMvaAsid            0                       # Number of times TLB was flushed by MVA & ASID
system.cpu.dtb.stage2_mmu.stage2_tlb.flushTlbAsid            0                       # Number of times TLB was flushed by ASID
system.cpu.dtb.stage2_mmu.stage2_tlb.flushedEntries            0                       # Number of entries that have been flushed from TLB
system.cpu.dtb.stage2_mmu.stage2_tlb.alignFaults            0                       # Number of TLB faults due to alignment restrictions
system.cpu.dtb.stage2_mmu.stage2_tlb.prefetchFaults            0                       # Number of TLB faults due to prefetch
system.cpu.dtb.stage2_mmu.stage2_tlb.domainFaults            0                       # Number of TLB faults due to domain restrictions
system.cpu.dtb.stage2_mmu.stage2_tlb.permsFaults            0                       # Number of TLB faults due to permissions restrictions
system.cpu.dtb.stage2_mmu.stage2_tlb.readAccesses            0                       # DTB read accesses
system.cpu.dtb.stage2_mmu.stage2_tlb.writeAccesses            0                       # DTB write accesses
system.cpu.dtb.stage2_mmu.stage2_tlb.instAccesses            0                       # ITB inst accesses
system.cpu.dtb.stage2_mmu.stage2_tlb.hits            0                       # Total TLB (inst and data) hits
system.cpu.dtb.stage2_mmu.stage2_tlb.misses            0                       # Total TLB (inst and data) misses
system.cpu.dtb.stage2_mmu.stage2_tlb.accesses            0                       # Total TLB (inst and data) accesses
system.cpu.dtb.stage2_mmu.stage2_tlb.walker.walks            0                       # Table walker walks requested
system.cpu.dtb.stage2_mmu.stage2_tlb.walker.requestOrigin_Requested::Data            0                       # Table walker requests started/completed, data/inst
system.cpu.dtb.stage2_mmu.stage2_tlb.walker.requestOrigin_Requested::Inst            0                       # Table walker requests started/completed, data/inst
system.cpu.dtb.stage2_mmu.stage2_tlb.walker.requestOrigin_Requested::total            0                       # Table walker requests started/completed, data/inst
system.cpu.dtb.stage2_mmu.stage2_tlb.walker.requestOrigin_Completed::Data            0                       # Table walker requests started/completed, data/inst
system.cpu.dtb.stage2_mmu.stage2_tlb.walker.requestOrigin_Completed::Inst            0                       # Table walker requests started/completed, data/inst
system.cpu.dtb.stage2_mmu.stage2_tlb.walker.requestOrigin_Completed::total            0                       # Table walker requests started/completed, data/inst
system.cpu.dtb.stage2_mmu.stage2_tlb.walker.requestOrigin::total            0                       # Table walker requests started/completed, data/inst
system.cpu.dtb.stage2_mmu.stage2_tlb.walker.power_state.pwrStateResidencyTicks::UNDEFINED 6897592340000                       # Cumulative time (in ticks) in various power states
system.cpu.dtb.walker.walks                         0                       # Table walker walks requested
system.cpu.dtb.walker.requestOrigin_Requested::Data            0                       # Table walker requests started/completed, data/inst
system.cpu.dtb.walker.requestOrigin_Requested::Inst            0                       # Table walker requests started/completed, data/inst
system.cpu.dtb.walker.requestOrigin_Requested::total            0                       # Table walker requests started/completed, data/inst
system.cpu.dtb.walker.requestOrigin_Completed::Data            0                       # Table walker requests started/completed, data/inst
system.cpu.dtb.walker.requestOrigin_Completed::Inst            0                       # Table walker requests started/completed, data/inst
system.cpu.dtb.walker.requestOrigin_Completed::total            0                       # Table walker requests started/completed, data/inst
system.cpu.dtb.walker.requestOrigin::total            0                       # Table walker requests started/completed, data/inst
system.cpu.dtb.walker.power_state.pwrStateResidencyTicks::UNDEFINED 6897592340000                       # Cumulative time (in ticks) in various power states
system.cpu.icache.demand_hits::.cpu.inst           13                       # number of demand (read+write) hits
system.cpu.icache.demand_hits::.switch_cpus.inst    381637076                       # number of demand (read+write) hits
system.cpu.icache.demand_hits::total        381637089                       # number of demand (read+write) hits
system.cpu.icache.overall_hits::.cpu.inst           13                       # number of overall hits
system.cpu.icache.overall_hits::.switch_cpus.inst    381637076                       # number of overall hits
system.cpu.icache.overall_hits::total       381637089                       # number of overall hits
system.cpu.icache.demand_misses::.cpu.inst            4                       # number of demand (read+write) misses
system.cpu.icache.demand_misses::.switch_cpus.inst     18538709                       # number of demand (read+write) misses
system.cpu.icache.demand_misses::total       18538713                       # number of demand (read+write) misses
system.cpu.icache.overall_misses::.cpu.inst            4                       # number of overall misses
system.cpu.icache.overall_misses::.switch_cpus.inst     18538709                       # number of overall misses
system.cpu.icache.overall_misses::total      18538713                       # number of overall misses
system.cpu.icache.demand_miss_latency::.switch_cpus.inst 432755183539                       # number of demand (read+write) miss cycles
system.cpu.icache.demand_miss_latency::total 432755183539                       # number of demand (read+write) miss cycles
system.cpu.icache.overall_miss_latency::.switch_cpus.inst 432755183539                       # number of overall miss cycles
system.cpu.icache.overall_miss_latency::total 432755183539                       # number of overall miss cycles
system.cpu.icache.demand_accesses::.cpu.inst           17                       # number of demand (read+write) accesses
system.cpu.icache.demand_accesses::.switch_cpus.inst    400175785                       # number of demand (read+write) accesses
system.cpu.icache.demand_accesses::total    400175802                       # number of demand (read+write) accesses
system.cpu.icache.overall_accesses::.cpu.inst           17                       # number of overall (read+write) accesses
system.cpu.icache.overall_accesses::.switch_cpus.inst    400175785                       # number of overall (read+write) accesses
system.cpu.icache.overall_accesses::total    400175802                       # number of overall (read+write) accesses
system.cpu.icache.demand_miss_rate::.cpu.inst     0.235294                       # miss rate for demand accesses
system.cpu.icache.demand_miss_rate::.switch_cpus.inst     0.046326                       # miss rate for demand accesses
system.cpu.icache.demand_miss_rate::total     0.046326                       # miss rate for demand accesses
system.cpu.icache.overall_miss_rate::.cpu.inst     0.235294                       # miss rate for overall accesses
system.cpu.icache.overall_miss_rate::.switch_cpus.inst     0.046326                       # miss rate for overall accesses
system.cpu.icache.overall_miss_rate::total     0.046326                       # miss rate for overall accesses
system.cpu.icache.demand_avg_miss_latency::.switch_cpus.inst 23343.329006                       # average overall miss latency
system.cpu.icache.demand_avg_miss_latency::total 23343.323970                       # average overall miss latency
system.cpu.icache.overall_avg_miss_latency::.switch_cpus.inst 23343.329006                       # average overall miss latency
system.cpu.icache.overall_avg_miss_latency::total 23343.323970                       # average overall miss latency
system.cpu.icache.blocked_cycles::no_mshrs      4160720                       # number of cycles access was blocked
system.cpu.icache.blocked_cycles::no_targets            0                       # number of cycles access was blocked
system.cpu.icache.blocked::no_mshrs            172514                       # number of cycles access was blocked
system.cpu.icache.blocked::no_targets               0                       # number of cycles access was blocked
system.cpu.icache.avg_blocked_cycles::no_mshrs    24.118159                       # average number of cycles each access was blocked
system.cpu.icache.avg_blocked_cycles::no_targets          nan                       # average number of cycles each access was blocked
system.cpu.icache.ghost_timestamp_misses            0                       # number of times timestamp policy causes a block to be inaccessible
system.cpu.icache.ghost_commits              11716807                       # number of cache lines moved from ghost to main
system.cpu.icache.same_leapfrogs                    0                       # number of times leapfrogging occurs with a shared MSHR request
system.cpu.icache.writebacks::.writebacks     23433119                       # number of writebacks
system.cpu.icache.writebacks::total          23433119                       # number of writebacks
system.cpu.icache.demand_mshr_hits::.switch_cpus.inst      1006020                       # number of demand (read+write) MSHR hits
system.cpu.icache.demand_mshr_hits::total      1006020                       # number of demand (read+write) MSHR hits
system.cpu.icache.overall_mshr_hits::.switch_cpus.inst      1006020                       # number of overall MSHR hits
system.cpu.icache.overall_mshr_hits::total      1006020                       # number of overall MSHR hits
system.cpu.icache.demand_mshr_misses::.switch_cpus.inst     17532689                       # number of demand (read+write) MSHR misses
system.cpu.icache.demand_mshr_misses::total     17532689                       # number of demand (read+write) MSHR misses
system.cpu.icache.overall_mshr_misses::.switch_cpus.inst     17532689                       # number of overall MSHR misses
system.cpu.icache.overall_mshr_misses::total     17532689                       # number of overall MSHR misses
system.cpu.icache.demand_mshr_miss_latency::.switch_cpus.inst 397491272093                       # number of demand (read+write) MSHR miss cycles
system.cpu.icache.demand_mshr_miss_latency::total 397491272093                       # number of demand (read+write) MSHR miss cycles
[...]
system.switch_cpus.fetch.pendingTrapStallCycles        55140                       # Number of stall cycles due to pending traps
system.switch_cpus.fetch.icacheWaitRetryStallCycles       375424                       # Number of stall cycles due to full MSHR
system.switch_cpus.fetch.cacheLines         400178314                       # Number of cache lines fetched
system.switch_cpus.fetch.icacheSquashes      10269715                       # Number of outstanding Icache misses that were squashed
system.switch_cpus.fetch.nisnDist::samples   1775486251                       # Number of instructions fetched each cycle (Total)
system.switch_cpus.fetch.nisnDist::mean      1.682535                       # Number of instructions fetched each cycle (Total)
system.switch_cpus.fetch.nisnDist::stdev     2.807437                       # Number of instructions fetched each cycle (Total)
system.switch_cpus.fetch.nisnDist::underflows            0      0.00%      0.00% # Number of instructions fetched each cycle (Total)
system.switch_cpus.fetch.nisnDist::0       1172378657     66.03%     66.03% # Number of instructions fetched each cycle (Total)
system.switch_cpus.fetch.nisnDist::1         69831483      3.93%     69.96% # Number of instructions fetched each cycle (Total)
system.switch_cpus.fetch.nisnDist::2         88921416      5.01%     74.97% # Number of instructions fetched each cycle (Total)
system.switch_cpus.fetch.nisnDist::3         67022233      3.77%     78.75% # Number of instructions fetched each cycle (Total)
system.switch_cpus.fetch.nisnDist::4         54484376      3.07%     81.82% # Number of instructions fetched each cycle (Total)
system.switch_cpus.fetch.nisnDist::5         52389111      2.95%     84.77% # Number of instructions fetched each cycle (Total)
system.switch_cpus.fetch.nisnDist::6         37607250      2.12%     86.89% # Number of instructions fetched each cycle (Total)
system.switch_cpus.fetch.nisnDist::7         29762866      1.68%     88.56% # Number of instructions fetched each cycle (Total)
system.switch_cpus.fetch.nisnDist::8        203088859     11.44%    100.00% # Number of instructions fetched each cycle (Total)
system.switch_cpus.fetch.nisnDist::overflows            0      0.00%    100.00% # Number of instructions fetched each cycle (Total)
system.switch_cpus.fetch.nisnDist::min_value            0                       # Number of instructions fetched each cycle (Total)
system.switch_cpus.fetch.nisnDist::max_value            8                       # Number of instructions fetched each cycle (Total)
system.switch_cpus.fetch.nisnDist::total   1775486251                       # Number of instructions fetched each cycle (Total)
system.switch_cpus.fetch.branchRate          0.292849                       # Number of branch fetches per cycle
system.switch_cpus.fetch.rate                1.366778                       # Number of inst fetches per cycle
system.switch_cpus.itb.instHits                     0                       # ITB inst hits
system.switch_cpus.itb.instMisses                   0                       # ITB inst misses
system.switch_cpus.itb.readHits                     0                       # DTB read hits
system.switch_cpus.itb.readMisses                   0                       # DTB read misses
system.switch_cpus.itb.writeHits                    0                       # DTB write hits
system.switch_cpus.itb.writeMisses                  0                       # DTB write misses
system.switch_cpus.itb.inserts                      0                       # Number of times an entry is inserted into the TLB
system.switch_cpus.itb.flushTlb                     0                       # Number of times complete TLB was flushed
system.switch_cpus.itb.flushTlbMva                  0                       # Number of times TLB was flushed by MVA
system.switch_cpus.itb.flushTlbMvaAsid              0                       # Number of times TLB was flushed by MVA & ASID
system.switch_cpus.itb.flushTlbAsid                 0                       # Number of times TLB was flushed by ASID
system.switch_cpus.itb.flushedEntries               0                       # Number of entries that have been flushed from TLB
system.switch_cpus.itb.alignFaults                  0                       # Number of TLB faults due to alignment restrictions
system.switch_cpus.itb.prefetchFaults               0                       # Number of TLB faults due to prefetch
system.switch_cpus.itb.domainFaults                 0                       # Number of TLB faults due to domain restrictions
system.switch_cpus.itb.permsFaults                  0                       # Number of TLB faults due to permissions restrictions
system.switch_cpus.itb.readAccesses                 0                       # DTB read accesses
system.switch_cpus.itb.writeAccesses                0                       # DTB write accesses
system.switch_cpus.itb.instAccesses                 0                       # ITB inst accesses
system.switch_cpus.itb.hits                         0                       # Total TLB (inst and data) hits
system.switch_cpus.itb.misses                       0                       # Total TLB (inst and data) misses
system.switch_cpus.itb.accesses                     0                       # Total TLB (inst and data) accesses
system.switch_cpus.itb.stage2_mmu.stage2_tlb.instHits            0                       # ITB inst hits
system.switch_cpus.itb.stage2_mmu.stage2_tlb.instMisses            0                       # ITB inst misses
system.switch_cpus.itb.stage2_mmu.stage2_tlb.readHits            0                       # DTB read hits
system.switch_cpus.itb.stage2_mmu.stage2_tlb.readMisses            0                       # DTB read misses
system.switch_cpus.itb.stage2_mmu.stage2_tlb.writeHits            0                       # DTB write hits
system.switch_cpus.itb.stage2_mmu.stage2_tlb.writeMisses            0                       # DTB write misses
system.switch_cpus.itb.stage2_mmu.stage2_tlb.inserts            0                       # Number of times an entry is inserted into the TLB
system.switch_cpus.itb.stage2_mmu.stage2_tlb.flushTlb            0                       # Number of times complete TLB was flushed
system.switch_cpus.itb.stage2_mmu.stage2_tlb.flushTlbMva            0                       # Number of times TLB was flushed by MVA
system.switch_cpus.itb.stage2_mmu.stage2_tlb.flushTlbMvaAsid            0                       # Number of times TLB was flushed by MVA & ASID
system.switch_cpus.itb.stage2_mmu.stage2_tlb.flushTlbAsid            0                       # Number of times TLB was flushed by ASID
system.switch_cpus.itb.stage2_mmu.stage2_tlb.flushedEntries            0                       # Number of entries that have been flushed from TLB
system.switch_cpus.itb.stage2_mmu.stage2_tlb.alignFaults            0                       # Number of TLB faults due to alignment restrictions
system.switch_cpus.itb.stage2_mmu.stage2_tlb.prefetchFaults            0                       # Number of TLB faults due to prefetch
system.switch_cpus.itb.stage2_mmu.stage2_tlb.domainFaults            0                       # Number of TLB faults due to domain restrictions
system.switch_cpus.itb.stage2_mmu.stage2_tlb.permsFaults            0                       # Number of TLB faults due to permissions restrictions
system.switch_cpus.itb.stage2_mmu.stage2_tlb.readAccesses            0                       # DTB read accesses
system.switch_cpus.itb.stage2_mmu.stage2_tlb.writeAccesses            0                       # DTB write accesses
system.switch_cpus.itb.stage2_mmu.stage2_tlb.instAccesses            0                       # ITB inst accesses
system.switch_cpus.itb.stage2_mmu.stage2_tlb.hits            0                       # Total TLB (inst and data) hits
system.switch_cpus.itb.stage2_mmu.stage2_tlb.misses            0                       # Total TLB (inst and data) misses
system.switch_cpus.itb.stage2_mmu.stage2_tlb.accesses            0                       # Total TLB (inst and data) accesses
system.switch_cpus.itb.stage2_mmu.stage2_tlb.walker.walks            0                       # Table walker walks requested
system.switch_cpus.itb.stage2_mmu.stage2_tlb.walker.requestOrigin_Requested::Data            0                       # Table walker requests started/completed, data/inst
system.switch_cpus.itb.stage2_mmu.stage2_tlb.walker.requestOrigin_Requested::Inst            0                       # Table walker requests started/completed, data/inst
system.switch_cpus.itb.stage2_mmu.stage2_tlb.walker.requestOrigin_Requested::total            0                       # Table walker requests started/completed, data/inst
system.switch_cpus.itb.stage2_mmu.stage2_tlb.walker.requestOrigin_Completed::Data            0                       # Table walker requests started/completed, data/inst
system.switch_cpus.itb.stage2_mmu.stage2_tlb.walker.requestOrigin_Completed::Inst            0                       # Table walker requests started/completed, data/inst
system.switch_cpus.itb.stage2_mmu.stage2_tlb.walker.requestOrigin_Completed::total            0                       # Table walker requests started/completed, data/inst
system.switch_cpus.itb.stage2_mmu.stage2_tlb.walker.requestOrigin::total            0                       # Table walker requests started/completed, data/inst
system.switch_cpus.itb.stage2_mmu.stage2_tlb.walker.power_state.pwrStateResidencyTicks::UNDEFINED 6897592340000                       # Cumulative time (in ticks) in various power states
system.switch_cpus.itb.walker.walks                 0                       # Table walker walks requested
system.switch_cpus.itb.walker.requestOrigin_Requested::Data            0                       # Table walker requests started/completed, data/inst
system.switch_cpus.itb.walker.requestOrigin_Requested::Inst            0                       # Table walker requests started/completed, data/inst
system.switch_cpus.itb.walker.requestOrigin_Requested::total            0                       # Table walker requests started/completed, data/inst
system.switch_cpus.itb.walker.requestOrigin_Completed::Data            0                       # Table walker requests started/completed, data/inst
system.switch_cpus.itb.walker.requestOrigin_Completed::Inst            0                       # Table walker requests started/completed, data/inst
system.switch_cpus.itb.walker.requestOrigin_Completed::total            0                       # Table walker requests started/completed, data/inst
system.switch_cpus.itb.walker.requestOrigin::total            0                       # Table walker requests started/completed, data/inst
system.switch_cpus.itb.walker.power_state.pwrStateResidencyTicks::UNDEFINED 6897592340000                       # Cumulative time (in ticks) in various power states
system.switch_cpus.lsq0.forwLoads            33335758                       # Number of loads that had data forwarded from stores
system.switch_cpus.lsq0.squashedLoads        98517177                       # Number of loads squashed
system.switch_cpus.lsq0.ignoredResponses       213088                       # Number of memory responses ignored because the instruction is squashed
system.switch_cpus.lsq0.memOrderViolation       383250                       # Number of memory ordering violations
system.switch_cpus.lsq0.squashedStores       55481288                       # Number of stores squashed
system.switch_cpus.lsq0.rescheduledLoads     38686002                       # Number of loads that were rescheduled
system.switch_cpus.lsq0.blockedByCache        2497026                       # Number of times an access to memory failed due to the cache being blocked
system.switch_cpus.power_state.pwrStateResidencyTicks::OFF 936400798000                       # Cumulative time (in ticks) in various power states
system.switch_cpus.rename.squashCycles       16196904                       # Number of cycles rename is squashing
system.switch_cpus.rename.idleCycles        658169267                       # Number of cycles rename is idle
system.switch_cpus.rename.blockCycles       278344813                       # Number of cycles rename is blocking
system.switch_cpus.rename.serializeStallCycles     38057729                       # count of cycles rename stalledfor serializing inst
system.switch_cpus.rename.runCycles         517275954                       # Number of cycles rename is running
system.switch_cpus.rename.unblockCycles     267441565                       # Number of cycles rename is unblocking
system.switch_cpus.rename.renamedInsts     2837966560                       # Number of instructions processed by rename
system.switch_cpus.rename.ROBFullEvents       1668286                       # Number of times rename has blocked due to ROB full
system.switch_cpus.rename.IQFullEvents       36008613                       # Number of times rename has blocked due to IQ full
system.switch_cpus.rename.LQFullEvents      132124443                       # Number of times rename has blocked due to LQ full
system.switch_cpus.rename.SQFullEvents      103379656                       # Number of times rename has blocked due to SQ full
system.switch_cpus.rename.renamedOperands   2836999884                       # Number of destination operands rename has renamed
system.switch_cpus.rename.lookups          4086563442                       # Number of register rename lookups that rename has made
system.switch_cpus.rename.intLookups       3190584485                       # Number of integer rename lookups
system.switch_cpus.rename.vecLookups         31888801                       # Number of vector rename lookups
system.switch_cpus.rename.vecPredLookups       197915                       # Number of vector predicate rename lookups
system.switch_cpus.rename.committedMaps    2357320377                       # Number of HB maps that are committed
system.switch_cpus.rename.undoneMaps        479679463                       # Number of HB maps that are undone due to squashing
system.switch_cpus.rename.serializing         1193884                       # count of serializing insts renamed
system.switch_cpus.rename.tempSerializing         2532                       # count of temporary serializing insts renamed
system.switch_cpus.rename.skidInsts         161445287                       # count of insts added to the skid buffer
system.switch_cpus.rob.reads               4313940715                       # The number of ROB reads
system.switch_cpus.rob.writes              5607515084                       # The number of ROB writes
system.switch_cpus.thread0.numInsts        2000000002                       # Number of Instructions committed
system.switch_cpus.thread0.numOps          2342881176                       # Number of Ops committed
system.switch_cpus.thread0.numMemRefs               0                       # Number of Memory References
system.tol2bus.trans_dist::ReadResp          38672609                       # Transaction distribution
system.tol2bus.trans_dist::WritebackDirty     10532615                       # Transaction distribution
system.tol2bus.trans_dist::WritebackClean     25116882                       # Transaction distribution
system.tol2bus.trans_dist::CleanEvict        14737744                       # Transaction distribution
system.tol2bus.trans_dist::HardPFReq          1245661                       # Transaction distribution
system.tol2bus.trans_dist::HardPFResp               5                       # Transaction distribution
system.tol2bus.trans_dist::UpgradeReq         4171949                       # Transaction distribution
system.tol2bus.trans_dist::UpgradeResp        4171949                       # Transaction distribution
system.tol2bus.trans_dist::ReadExReq          2636261                       # Transaction distribution
system.tol2bus.trans_dist::ReadExResp         2636261                       # Transaction distribution
system.tol2bus.trans_dist::ReadCleanReq      38672587                       # Transaction distribution
system.tol2bus.trans_dist::ReadSharedReq           22                       # Transaction distribution
system.tol2bus.trans_dist::InvalidateReq       964191                       # Transaction distribution
system.tol2bus.trans_dist::InvalidateResp       964191                       # Transaction distribution
system.tol2bus.pkt_count_system.cpu.icache.mem_side_port::system.l2.cpu_side_port     52591688                       # Packet count per connected requestor and responder (bytes)
system.tol2bus.pkt_count_system.cpu.dcache.mem_side_port::system.l2.cpu_side_port     82512922                       # Packet count per connected requestor and responder (bytes)
system.tol2bus.pkt_count::total             135104610                       # Packet count per connected requestor and responder (bytes)
system.tol2bus.pkt_size_system.cpu.icache.mem_side_port::system.l2.cpu_side_port   1871587264                       # Cumulative packet size per connected requestor and responder (bytes)
system.tol2bus.pkt_size_system.cpu.dcache.mem_side_port::system.l2.cpu_side_port   2876501760                       # Cumulative packet size per connected requestor and responder (bytes)
system.tol2bus.pkt_size::total             4748089024                       # Cumulative packet size per connected requestor and responder (bytes)
system.tol2bus.snoops                         9418322                       # Total snoops (count)
system.tol2bus.snoopTraffic                 177247104                       # Total snoop traffic (bytes)
system.tol2bus.snoop_fanout::samples         55857873                       # Request fanout histogram
system.tol2bus.snoop_fanout::mean            0.080349                       # Request fanout histogram
system.tol2bus.snoop_fanout::stdev           0.271865                       # Request fanout histogram
system.tol2bus.snoop_fanout::underflows             0      0.00%      0.00% # Request fanout histogram
system.tol2bus.snoop_fanout::0               51370206     91.97%     91.97% # Request fanout histogram
system.tol2bus.snoop_fanout::1                4487184      8.03%    100.00% # Request fanout histogram
system.tol2bus.snoop_fanout::2                    483      0.00%    100.00% # Request fanout histogram
system.tol2bus.snoop_fanout::overflows              0      0.00%    100.00% # Request fanout histogram
system.tol2bus.snoop_fanout::min_value              0                       # Request fanout histogram
system.tol2bus.snoop_fanout::max_value              2                       # Request fanout histogram
system.tol2bus.snoop_fanout::total           55857873                       # Request fanout histogram
system.tol2bus.power_state.pwrStateResidencyTicks::UNDEFINED 6897592340000                       # Cumulative time (in ticks) in various power states
system.tol2bus.reqLayer0.occupancy        91407331951                       # Layer occupancy (ticks)
system.tol2bus.reqLayer0.utilization              9.8                       # Layer utilization (%)
system.tol2bus.respLayer0.occupancy       26321352273                       # Layer occupancy (ticks)
system.tol2bus.respLayer0.utilization             2.8                       # Layer utilization (%)
system.tol2bus.respLayer1.occupancy       38242631857                       # Layer occupancy (ticks)
system.tol2bus.respLayer1.utilization             4.1                       # Layer utilization (%)
system.tol2bus.snoopLayer0.occupancy             7510                       # Layer occupancy (ticks)
system.tol2bus.snoopLayer0.utilization            0.0                       # Layer utilization (%)
system.voltage_domain.voltage                       1                       # Voltage in Volts

---------- End Simulation Statistics   ----------
