
---------- Begin Simulation Statistics ----------
final_tick                               5648906749500                       # Number of ticks from beginning of simulation (restored from checkpoints and never reset)
host_inst_rate                                 430331                       # Simulator instruction rate (inst/s)
host_mem_usage                               17056308                       # Number of bytes of host memory used
host_op_rate                                   459338                       # Simulator op (including micro ops) rate (op/s)
host_seconds                                  4647.59                       # Real time elapsed on the host
host_tick_rate                               81458625                       # Simulator tick rate (ticks/s)
sim_freq                                 1000000000000                       # Frequency of simulated ticks
sim_insts                                  2000000023                       # Number of instructions simulated
sim_ops                                    2134811576                       # Number of ops (including micro ops) simulated
sim_seconds                                  0.378586                       # Number of seconds simulated
sim_ticks                                378586077000                       # Number of ticks simulated
system.cpu.Branches                                 5                       # Number of branches fetched
system.cpu.committedInsts                          19                       # Number of instructions committed
system.cpu.committedOps                            21                       # Number of ops (including micro ops) committed
system.cpu.dcache.MSHRs.leapFrogMisses             65                       # number of false blocks from MSHR
system.cpu.icache.MSHRs.leapFrogMisses              0                       # number of false blocks from MSHR
system.cpu.idle_fraction                            0                       # Percentage of idle cycles
system.cpu.not_idle_fraction                        1                       # Percentage of non-idle cycles
system.cpu.numCycles                               21                       # number of cpu cycles simulated
system.cpu.numWorkItemsCompleted                    0                       # number of work items this cpu completed
system.cpu.numWorkItemsStarted                      0                       # number of work items this cpu started
system.cpu.num_busy_cycles                         21                       # Number of busy cycles
system.cpu.num_cc_register_reads                   15                       # number of times the CC registers were read
system.cpu.num_cc_register_writes                  12                       # number of times the CC registers were written
system.cpu.num_conditional_control_insts            5                       # number of instructions that are conditional controls
system.cpu.num_fp_alu_accesses                      0                       # Number of float alu accesses
system.cpu.num_fp_insts                             0                       # number of float instructions
system.cpu.num_fp_register_reads                    0                       # number of times the floating registers were read
system.cpu.num_fp_register_writes                   0                       # number of times the floating registers were written
system.cpu.num_func_calls                           0                       # number of times a function call or return occured
system.cpu.num_idle_cycles                          0                       # Number of idle cycles
system.cpu.num_int_alu_accesses                    16                       # Number of integer alu accesses
system.cpu.num_int_insts                           16                       # number of integer instructions
system.cpu.num_int_register_reads                  18                       # number of times the integer registers were read
system.cpu.num_int_register_writes                 18                       # number of times the integer registers were written
system.cpu.num_load_insts                           4                       # Number of load instructions
system.cpu.num_mem_refs                             4                       # number of memory refs
system.cpu.num_store_insts                          0                       # Number of store instructions
system.cpu.num_vec_alu_accesses                     0                       # Number of vector alu accesses
system.cpu.num_vec_insts                            0                       # number of vector instructions
system.cpu.num_vec_register_reads                   0                       # number of times the vector registers were read
system.cpu.num_vec_register_writes                  0                       # number of times the vector registers were written
system.cpu.op_class::No_OpClass                     0      0.00%      0.00% # Class of executed instruction
system.cpu.op_class::IntAlu                        17     80.95%     80.95% # Class of executed instruction
system.cpu.op_class::IntMult                        0      0.00%     80.95% # Class of executed instruction
system.cpu.op_class::IntDiv                         0      0.00%     80.95% # Class of executed instruction
system.cpu.op_class::FloatAdd                       0      0.00%     80.95% # Class of executed instruction
system.cpu.op_class::FloatCmp                       0      0.00%     80.95% # Class of executed instruction
system.cpu.op_class::FloatCvt                       0      0.00%     80.95% # Class of executed instruction
system.cpu.op_class::FloatMult                      0      0.00%     80.95% # Class of executed instruction
system.cpu.op_class::FloatMultAcc                   0      0.00%     80.95% # Class of executed instruction
system.cpu.op_class::FloatDiv                       0      0.00%     80.95% # Class of executed instruction
system.cpu.op_class::FloatMisc                      0      0.00%     80.95% # Class of executed instruction
system.cpu.op_class::FloatSqrt                      0      0.00%     80.95% # Class of executed instruction
system.cpu.op_class::SimdAdd                        0      0.00%     80.95% # Class of executed instruction
system.cpu.op_class::SimdAddAcc                     0      0.00%     80.95% # Class of executed instruction
system.cpu.op_class::SimdAlu                        0      0.00%     80.95% # Class of executed instruction
system.cpu.op_class::SimdCmp                        0      0.00%     80.95% # Class of executed instruction
system.cpu.op_class::SimdCvt                        0      0.00%     80.95% # Class of executed instruction
system.cpu.op_class::SimdMisc                       0      0.00%     80.95% # Class of executed instruction
system.cpu.op_class::SimdMult                       0      0.00%     80.95% # Class of executed instruction
system.cpu.op_class::SimdMultAcc                    0      0.00%     80.95% # Class of executed instruction
system.cpu.op_class::SimdShift                      0      0.00%     80.95% # Class of executed instruction
system.cpu.op_class::SimdShiftAcc                   0      0.00%     80.95% # Class of executed instruction
system.cpu.op_class::SimdDiv                        0      0.00%     80.95% # Class of executed instruction
system.cpu.op_class::SimdSqrt                       0      0.00%     80.95% # Class of executed instruction
system.cpu.op_class::SimdFloatAdd                   0      0.00%     80.95% # Class of executed instruction
system.cpu.op_class::SimdFloatAlu                   0      0.00%     80.95% # Class of executed instruction
system.cpu.op_class::SimdFloatCmp                   0      0.00%     80.95% # Class of executed instruction
system.cpu.op_class::SimdFloatCvt                   0      0.00%     80.95% # Class of executed instruction
system.cpu.op_class::SimdFloatDiv                   0      0.00%     80.95% # Class of executed instruction
system.cpu.op_class::SimdFloatMisc                  0      0.00%     80.95% # Class of executed instruction
system.cpu.op_class::SimdFloatMult                  0      0.00%     80.95% # Class of executed instruction
system.cpu.op_class::SimdFloatMultAcc               0      0.00%     80.95% # Class of executed instruction
system.cpu.op_class::SimdFloatSqrt                  0      0.00%     80.95% # Class of executed instruction
system.cpu.op_class::SimdReduceAdd                  0      0.00%     80.95% # Class of executed instruction
system.cpu.op_class::SimdReduceAlu                  0      0.00%     80.95% # Class of executed instruction
system.cpu.op_class::SimdReduceCmp                  0      0.00%     80.95% # Class of executed instruction
system.cpu.op_class::SimdFloatReduceAdd             0      0.00%     80.95% # Class of executed instruction
system.cpu.op_class::SimdFloatReduceCmp             0      0.00%     80.95% # Class of executed instruction
system.cpu.op_class::SimdAes                        0      0.00%     80.95% # Class of executed instruction
system.cpu.op_class::SimdAesMix                     0      0.00%     80.95% # Class of executed instruction
system.cpu.op_class::SimdSha1Hash                   0      0.00%     80.95% # Class of executed instruction
system.cpu.op_class::SimdSha1Hash2                  0      0.00%     80.95% # Class of executed instruction
system.cpu.op_class::SimdSha256Hash                 0      0.00%     80.95% # Class of executed instruction
system.cpu.op_class::SimdSha256Hash2                0      0.00%     80.95% # Class of executed instruction
system.cpu.op_class::SimdShaSigma2                  0      0.00%     80.95% # Class of executed instruction
system.cpu.op_class::SimdShaSigma3                  0      0.00%     80.95% # Class of executed instruction
system.cpu.op_class::SimdPredAlu                    0      0.00%     80.95% # Class of executed instruction
system.cpu.op_class::MemRead                        4     19.05%    100.00% # Class of executed instruction
system.cpu.op_class::MemWrite                       0      0.00%    100.00% # Class of executed instruction
system.cpu.op_class::FloatMemRead                   0      0.00%    100.00% # Class of executed instruction
system.cpu.op_class::FloatMemWrite                  0      0.00%    100.00% # Class of executed instruction
system.cpu.op_class::IprAccess                      0      0.00%    100.00% # Class of executed instruction
system.cpu.op_class::InstPrefetch                   0      0.00%    100.00% # Class of executed instruction
system.cpu.op_class::total                         21                       # Class of executed instruction
system.cpu.workload.numSyscalls                     0                       # Number of system calls
system.l2.MSHRs.leapFrogMisses                      0                       # number of false blocks from MSHR
system.membus.snoop_filter.hit_multi_requests            0                       # Number of requests hitting in the snoop filter with multiple (>1) holders of the requested data.
system.membus.snoop_filter.hit_multi_snoops            0                       # Number of snoops hitting in the snoop filter with multiple (>1) holders of the requested data.
system.membus.snoop_filter.hit_single_requests       233890                       # Number of requests hitting in the snoop filter with a single holder of the requested data.
system.membus.snoop_filter.hit_single_snoops            0                       # Number of snoops hitting in the snoop filter with a single holder of the requested data.
system.membus.snoop_filter.tot_requests        469730                       # Total number of requests made to the snoop filter.
system.membus.snoop_filter.tot_snoops               0                       # Total number of snoops made to the snoop filter.
system.switch_cpus.cc_regfile_reads         695443416                       # number of cc regfile reads
system.switch_cpus.cc_regfile_writes        709291083                       # number of cc regfile writes
system.switch_cpus.committedInsts          2000000004                       # Number of Instructions Simulated
system.switch_cpus.committedOps            2134811555                       # Number of Ops (including micro ops) Simulated
system.switch_cpus.cpi                       0.378586                       # CPI: Cycles Per Instruction
system.switch_cpus.cpi_total                 0.378586                       # CPI: Total CPI of All Threads
system.switch_cpus.idleCycles                  949097                       # Total number of cycles that the CPU has spent unscheduled due to idling
system.switch_cpus.iew.branchMispredicts     15962163                       # Number of branch mispredicts detected at execute
system.switch_cpus.iew.exec_branches        270215280                       # Number of branches executed
system.switch_cpus.iew.exec_nop              17099926                       # number of nop insts executed
system.switch_cpus.iew.exec_rate             3.058711                       # Inst execution rate
system.switch_cpus.iew.exec_refs            892062947                       # number of memory reference insts executed
system.switch_cpus.iew.exec_stores          376945209                       # Number of stores executed
system.switch_cpus.iew.exec_swp                     0                       # number of swp insts executed
system.switch_cpus.iew.iewBlockCycles        33303578                       # Number of cycles IEW is blocking
system.switch_cpus.iew.iewDispLoadInsts     547492760                       # Number of dispatched load instructions
system.switch_cpus.iew.iewDispNonSpecInsts            0                       # Number of dispatched non-speculative instructions
system.switch_cpus.iew.iewDispSquashedInsts      3720455                       # Number of squashed instructions skipped by dispatch
system.switch_cpus.iew.iewDispStoreInsts    401019812                       # Number of dispatched store instructions
system.switch_cpus.iew.iewDispatchedInsts   2471919121                       # Number of instructions dispatched to IQ
system.switch_cpus.iew.iewExecLoadInsts     515117738                       # Number of load instructions executed
system.switch_cpus.iew.iewExecSquashedInsts     31899602                       # Number of squashed instructions skipped in execute
system.switch_cpus.iew.iewExecutedInsts    2315970502                       # Number of executed instructions
system.switch_cpus.iew.iewIQFullEvents           3440                       # Number of times the IQ has become full, causing a stall
system.switch_cpus.iew.iewIdleCycles                0                       # Number of cycles IEW is idle
system.switch_cpus.iew.iewLSQFullEvents          8395                       # Number of times the LSQ has become full, causing a stall
system.switch_cpus.iew.iewSquashCycles       14135438                       # Number of cycles IEW is squashing
system.switch_cpus.iew.iewUnblockCycles         12528                       # Number of cycles IEW is unblocking
system.switch_cpus.iew.memOrderViolationEvents       214491                       # Number of memory order violations
system.switch_cpus.iew.predictedNotTakenIncorrect      7717786                       # Number of branches that were predicted not taken incorrectly
system.switch_cpus.iew.predictedTakenIncorrect      8244377                       # Number of branches that were predicted taken incorrectly
system.switch_cpus.iew.wb_consumers        2251635147                       # num instructions consuming a value
system.switch_cpus.iew.wb_count            2286819224                       # cumulative count of insts written-back
system.switch_cpus.iew.wb_fanout             0.597557                       # average fanout of values written-back
system.switch_cpus.iew.wb_producers        1345480761                       # num instructions producing a value
system.switch_cpus.iew.wb_rate               3.020210                       # insts written-back per cycle
system.switch_cpus.iew.wb_sent             2295766979                       # cumulative count of insts sent to commit
system.switch_cpus.int_regfile_reads       2737007501                       # number of integer regfile reads
system.switch_cpus.int_regfile_writes      1510160736                       # number of integer regfile writes
system.switch_cpus.ipc                       2.641407                       # IPC: Instructions Per Cycle
system.switch_cpus.ipc_total                 2.641407                       # IPC: Total IPC of All Threads
system.switch_cpus.iq.FU_type_0::No_OpClass           32      0.00%      0.00% # Type of FU issued
system.switch_cpus.iq.FU_type_0::IntAlu    1308832501     55.75%     55.75% # Type of FU issued
system.switch_cpus.iq.FU_type_0::IntMult     18325088      0.78%     56.53% # Type of FU issued
system.switch_cpus.iq.FU_type_0::IntDiv          5174      0.00%     56.53% # Type of FU issued
system.switch_cpus.iq.FU_type_0::FloatAdd            0      0.00%     56.53% # Type of FU issued
system.switch_cpus.iq.FU_type_0::FloatCmp            0      0.00%     56.53% # Type of FU issued
system.switch_cpus.iq.FU_type_0::FloatCvt            0      0.00%     56.53% # Type of FU issued
system.switch_cpus.iq.FU_type_0::FloatMult            0      0.00%     56.53% # Type of FU issued
system.switch_cpus.iq.FU_type_0::FloatMultAcc            0      0.00%     56.53% # Type of FU issued
system.switch_cpus.iq.FU_type_0::FloatDiv            0      0.00%     56.53% # Type of FU issued
system.switch_cpus.iq.FU_type_0::FloatMisc       309300      0.01%     56.54% # Type of FU issued
system.switch_cpus.iq.FU_type_0::FloatSqrt            0      0.00%     56.54% # Type of FU issued
system.switch_cpus.iq.FU_type_0::SimdAdd     70131049      2.99%     59.53% # Type of FU issued
system.switch_cpus.iq.FU_type_0::SimdAddAcc            0      0.00%     59.53% # Type of FU issued
system.switch_cpus.iq.FU_type_0::SimdAlu     15154843      0.65%     60.17% # Type of FU issued
system.switch_cpus.iq.FU_type_0::SimdCmp       208757      0.01%     60.18% # Type of FU issued
system.switch_cpus.iq.FU_type_0::SimdCvt            0      0.00%     60.18% # Type of FU issued
system.switch_cpus.iq.FU_type_0::SimdMisc     26594969      1.13%     61.31% # Type of FU issued
system.switch_cpus.iq.FU_type_0::SimdMult            0      0.00%     61.31% # Type of FU issued
system.switch_cpus.iq.FU_type_0::SimdMultAcc            0      0.00%     61.31% # Type of FU issued
system.switch_cpus.iq.FU_type_0::SimdShift            0      0.00%     61.31% # Type of FU issued
system.switch_cpus.iq.FU_type_0::SimdShiftAcc            0      0.00%     61.31% # Type of FU issued
system.switch_cpus.iq.FU_type_0::SimdDiv            0      0.00%     61.31% # Type of FU issued
system.switch_cpus.iq.FU_type_0::SimdSqrt            0      0.00%     61.31% # Type of FU issued
system.switch_cpus.iq.FU_type_0::SimdFloatAdd            0      0.00%     61.31% # Type of FU issued
system.switch_cpus.iq.FU_type_0::SimdFloatAlu            0      0.00%     61.31% # Type of FU issued
system.switch_cpus.iq.FU_type_0::SimdFloatCmp            0      0.00%     61.31% # Type of FU issued
system.switch_cpus.iq.FU_type_0::SimdFloatCvt            0      0.00%     61.31% # Type of FU issued
system.switch_cpus.iq.FU_type_0::SimdFloatDiv            0      0.00%     61.31% # Type of FU issued
system.switch_cpus.iq.FU_type_0::SimdFloatMisc            0      0.00%     61.31% # Type of FU issued
system.switch_cpus.iq.FU_type_0::SimdFloatMult            0      0.00%     61.31% # Type of FU issued
system.switch_cpus.iq.FU_type_0::SimdFloatMultAcc            0      0.00%     61.31% # Type of FU issued
system.switch_cpus.iq.FU_type_0::SimdFloatSqrt            0      0.00%     61.31% # Type of FU issued
system.switch_cpus.iq.FU_type_0::SimdReduceAdd            0      0.00%     61.31% # Type of FU issued
system.switch_cpus.iq.FU_type_0::SimdReduceAlu            0      0.00%     61.31% # Type of FU issued
system.switch_cpus.iq.FU_type_0::SimdReduceCmp            0      0.00%     61.31% # Type of FU issued
system.switch_cpus.iq.FU_type_0::SimdFloatReduceAdd            0      0.00%     61.31% # Type of FU issued
system.switch_cpus.iq.FU_type_0::SimdFloatReduceCmp            0      0.00%     61.31% # Type of FU issued
system.switch_cpus.iq.FU_type_0::SimdAes            0      0.00%     61.31% # Type of FU issued
system.switch_cpus.iq.FU_type_0::SimdAesMix            0      0.00%     61.31% # Type of FU issued
system.switch_cpus.iq.FU_type_0::SimdSha1Hash            0      0.00%     61.31% # Type of FU issued
system.switch_cpus.iq.FU_type_0::SimdSha1Hash2            0      0.00%     61.31% # Type of FU issued
system.switch_cpus.iq.FU_type_0::SimdSha256Hash            0      0.00%     61.31% # Type of FU issued
system.switch_cpus.iq.FU_type_0::SimdSha256Hash2            0      0.00%     61.31% # Type of FU issued
system.switch_cpus.iq.FU_type_0::SimdShaSigma2            0      0.00%     61.31% # Type of FU issued
system.switch_cpus.iq.FU_type_0::SimdShaSigma3            0      0.00%     61.31% # Type of FU issued
system.switch_cpus.iq.FU_type_0::SimdPredAlu            0      0.00%     61.31% # Type of FU issued
system.switch_cpus.iq.FU_type_0::MemRead    526886538     22.44%     83.75% # Type of FU issued
system.switch_cpus.iq.FU_type_0::MemWrite    381421861     16.25%    100.00% # Type of FU issued
system.switch_cpus.iq.FU_type_0::FloatMemRead            0      0.00%    100.00% # Type of FU issued
system.switch_cpus.iq.FU_type_0::FloatMemWrite            0      0.00%    100.00% # Type of FU issued
system.switch_cpus.iq.FU_type_0::IprAccess            0      0.00%    100.00% # Type of FU issued
system.switch_cpus.iq.FU_type_0::InstPrefetch            0      0.00%    100.00% # Type of FU issued
system.switch_cpus.iq.FU_type_0::total     2347870112                       # Type of FU issued
system.switch_cpus.iq.fp_alu_accesses               0                       # Number of floating point alu accesses
system.switch_cpus.iq.fp_inst_queue_reads            0                       # Number of floating instruction queue reads
system.switch_cpus.iq.fp_inst_queue_wakeup_accesses            0                       # Number of floating instruction queue wakeup accesses
system.switch_cpus.iq.fp_inst_queue_writes            0                       # Number of floating instruction queue writes
system.switch_cpus.iq.fu_busy_cnt            58585168                       # FU busy when requested
system.switch_cpus.iq.fu_busy_rate           0.024952                       # FU busy rate (busy events/executed inst)
system.switch_cpus.iq.fu_full::No_OpClass            0      0.00%      0.00% # attempts to use FU when none available
system.switch_cpus.iq.fu_full::IntAlu        11184544     19.09%     19.09% # attempts to use FU when none available
system.switch_cpus.iq.fu_full::IntMult         170774      0.29%     19.38% # attempts to use FU when none available
system.switch_cpus.iq.fu_full::IntDiv               0      0.00%     19.38% # attempts to use FU when none available
system.switch_cpus.iq.fu_full::FloatAdd             0      0.00%     19.38% # attempts to use FU when none available
system.switch_cpus.iq.fu_full::FloatCmp             0      0.00%     19.38% # attempts to use FU when none available
system.switch_cpus.iq.fu_full::FloatCvt             0      0.00%     19.38% # attempts to use FU when none available
system.switch_cpus.iq.fu_full::FloatMult            0      0.00%     19.38% # attempts to use FU when none available
system.switch_cpus.iq.fu_full::FloatMultAcc            0      0.00%     19.38% # attempts to use FU when none available
system.switch_cpus.iq.fu_full::FloatDiv             0      0.00%     19.38% # attempts to use FU when none available
system.switch_cpus.iq.fu_full::FloatMisc          228      0.00%     19.38% # attempts to use FU when none available
system.switch_cpus.iq.fu_full::FloatSqrt            0      0.00%     19.38% # attempts to use FU when none available
system.switch_cpus.iq.fu_full::SimdAdd              1      0.00%     19.38% # attempts to use FU when none available
system.switch_cpus.iq.fu_full::SimdAddAcc            0      0.00%     19.38% # attempts to use FU when none available
system.switch_cpus.iq.fu_full::SimdAlu            800      0.00%     19.38% # attempts to use FU when none available
system.switch_cpus.iq.fu_full::SimdCmp            399      0.00%     19.39% # attempts to use FU when none available
system.switch_cpus.iq.fu_full::SimdCvt              0      0.00%     19.39% # attempts to use FU when none available
system.switch_cpus.iq.fu_full::SimdMisc           233      0.00%     19.39% # attempts to use FU when none available
system.switch_cpus.iq.fu_full::SimdMult             0      0.00%     19.39% # attempts to use FU when none available
system.switch_cpus.iq.fu_full::SimdMultAcc            0      0.00%     19.39% # attempts to use FU when none available
system.switch_cpus.iq.fu_full::SimdShift            0      0.00%     19.39% # attempts to use FU when none available
system.switch_cpus.iq.fu_full::SimdShiftAcc            0      0.00%     19.39% # attempts to use FU when none available
system.switch_cpus.iq.fu_full::SimdDiv              0      0.00%     19.39% # attempts to use FU when none available
system.switch_cpus.iq.fu_full::SimdSqrt             0      0.00%     19.39% # attempts to use FU when none available
system.switch_cpus.iq.fu_full::SimdFloatAdd            0      0.00%     19.39% # attempts to use FU when none available
system.switch_cpus.iq.fu_full::SimdFloatAlu            0      0.00%     19.39% # attempts to use FU when none available
system.switch_cpus.iq.fu_full::SimdFloatCmp            0      0.00%     19.39% # attempts to use FU when none available
system.switch_cpus.iq.fu_full::SimdFloatCvt            0      0.00%     19.39% # attempts to use FU when none available
system.switch_cpus.iq.fu_full::SimdFloatDiv            0      0.00%     19.39% # attempts to use FU when none available
system.switch_cpus.iq.fu_full::SimdFloatMisc            0      0.00%     19.39% # attempts to use FU when none available
system.switch_cpus.iq.fu_full::SimdFloatMult            0      0.00%     19.39% # attempts to use FU when none available
system.switch_cpus.iq.fu_full::SimdFloatMultAcc            0      0.00%     19.39% # attempts to use FU when none available
system.switch_cpus.iq.fu_full::SimdFloatSqrt            0      0.00%     19.39% # attempts to use FU when none available
system.switch_cpus.iq.fu_full::SimdReduceAdd            0      0.00%     19.39% # attempts to use FU when none available
system.switch_cpus.iq.fu_full::SimdReduceAlu            0      0.00%     19.39% # attempts to use FU when none available
system.switch_cpus.iq.fu_full::SimdReduceCmp            0      0.00%     19.39% # attempts to use FU when none available
system.switch_cpus.iq.fu_full::SimdFloatReduceAdd            0      0.00%     19.39% # attempts to use FU when none available
system.switch_cpus.iq.fu_full::SimdFloatReduceCmp            0      0.00%     19.39% # attempts to use FU when none available
system.switch_cpus.iq.fu_full::SimdAes              0      0.00%     19.39% # attempts to use FU when none available
system.switch_cpus.iq.fu_full::SimdAesMix            0      0.00%     19.39% # attempts to use FU when none available
system.switch_cpus.iq.fu_full::SimdSha1Hash            0      0.00%     19.39% # attempts to use FU when none available
system.switch_cpus.iq.fu_full::SimdSha1Hash2            0      0.00%     19.39% # attempts to use FU when none available
system.switch_cpus.iq.fu_full::SimdSha256Hash            0      0.00%     19.39% # attempts to use FU when none available
system.switch_cpus.iq.fu_full::SimdSha256Hash2            0      0.00%     19.39% # attempts to use FU when none available
system.switch_cpus.iq.fu_full::SimdShaSigma2            0      0.00%     19.39% # attempts to use FU when none available
system.switch_cpus.iq.fu_full::SimdShaSigma3            0      0.00%     19.39% # attempts to use FU when none available
system.switch_cpus.iq.fu_full::SimdPredAlu            0      0.00%     19.39% # attempts to use FU when none available
system.switch_cpus.iq.fu_full::MemRead       30310633     51.74%     71.12% # attempts to use FU when none available
system.switch_cpus.iq.fu_full::MemWrite      16917556     28.88%    100.00% # attempts to use FU when none available
system.switch_cpus.iq.fu_full::FloatMemRead            0      0.00%    100.00% # attempts to use FU when none available
system.switch_cpus.iq.fu_full::FloatMemWrite            0      0.00%    100.00% # attempts to use FU when none available
system.switch_cpus.iq.fu_full::IprAccess            0      0.00%    100.00% # attempts to use FU when none available
system.switch_cpus.iq.fu_full::InstPrefetch            0      0.00%    100.00% # attempts to use FU when none available
system.switch_cpus.iq.int_alu_accesses     2119339453                       # Number of integer alu accesses
system.switch_cpus.iq.int_inst_queue_reads   4950816796                       # Number of integer instruction queue reads
system.switch_cpus.iq.int_inst_queue_wakeup_accesses   2018467202                       # Number of integer instruction queue wakeup accesses
system.switch_cpus.iq.int_inst_queue_writes   2440854239                       # Number of integer instruction queue writes
system.switch_cpus.iq.iqInstsAdded         2454819195                       # Number of instructions added to the IQ (excludes non-spec)
system.switch_cpus.iq.iqInstsIssued        2347870112                       # Number of instructions issued
system.switch_cpus.iq.iqSquashedInstsExamined    320007606                       # Number of squashed instructions iterated over during squash; mainly for profiling
system.switch_cpus.iq.iqSquashedInstsIssued      3857208                       # Number of squashed instructions issued
system.switch_cpus.iq.iqSquashedOperandsExamined    302249091                       # Number of squashed operands that are examined and possibly removed from graph
system.switch_cpus.iq.issued_per_cycle::samples    756223037                       # Number of insts issued each cycle
system.switch_cpus.iq.issued_per_cycle::mean     3.104732                       # Number of insts issued each cycle
system.switch_cpus.iq.issued_per_cycle::stdev     2.499550                       # Number of insts issued each cycle
system.switch_cpus.iq.issued_per_cycle::underflows            0      0.00%      0.00% # Number of insts issued each cycle
system.switch_cpus.iq.issued_per_cycle::0    163372024     21.60%     21.60% # Number of insts issued each cycle
system.switch_cpus.iq.issued_per_cycle::1     92978822     12.30%     33.90% # Number of insts issued each cycle
system.switch_cpus.iq.issued_per_cycle::2     83391599     11.03%     44.93% # Number of insts issued each cycle
system.switch_cpus.iq.issued_per_cycle::3     97116263     12.84%     57.77% # Number of insts issued each cycle
system.switch_cpus.iq.issued_per_cycle::4     89464561     11.83%     69.60% # Number of insts issued each cycle
system.switch_cpus.iq.issued_per_cycle::5     74812452      9.89%     79.49% # Number of insts issued each cycle
system.switch_cpus.iq.issued_per_cycle::6     62086599      8.21%     87.70% # Number of insts issued each cycle
system.switch_cpus.iq.issued_per_cycle::7     51686531      6.83%     94.54% # Number of insts issued each cycle
system.switch_cpus.iq.issued_per_cycle::8     41314186      5.46%    100.00% # Number of insts issued each cycle
system.switch_cpus.iq.issued_per_cycle::overflows            0      0.00%    100.00% # Number of insts issued each cycle
system.switch_cpus.iq.issued_per_cycle::min_value            0                       # Number of insts issued each cycle
system.switch_cpus.iq.issued_per_cycle::max_value            8                       # Number of insts issued each cycle
system.switch_cpus.iq.issued_per_cycle::total    756223037                       # Number of insts issued each cycle
system.switch_cpus.iq.rate                   3.100841                       # Inst issue rate
system.switch_cpus.iq.vec_alu_accesses      287115795                       # Number of vector alu accesses
system.switch_cpus.iq.vec_inst_queue_reads    563588833                       # Number of vector instruction queue reads
system.switch_cpus.iq.vec_inst_queue_wakeup_accesses    268352022                       # Number of vector instruction queue wakeup accesses
system.switch_cpus.iq.vec_inst_queue_writes    334181339                       # Number of vector instruction queue writes
system.switch_cpus.memDep0.conflictingLoads     42927306                       # Number of conflicting loads.
system.switch_cpus.memDep0.conflictingStores     23823989                       # Number of conflicting stores.
system.switch_cpus.memDep0.insertedLoads    547492760                       # Number of loads inserted to the mem dependence unit.
system.switch_cpus.memDep0.insertedStores    401019812                       # Number of stores inserted to the mem dependence unit.
system.switch_cpus.misc_regfile_reads      6166717291                       # number of misc regfile reads
system.switch_cpus.misc_regfile_writes              1                       # number of misc regfile writes
system.switch_cpus.numCycles                757172134                       # number of cpu cycles simulated
system.switch_cpus.numWorkItemsCompleted            0                       # number of work items this cpu completed
system.switch_cpus.numWorkItemsStarted              0                       # number of work items this cpu started
system.switch_cpus.pred_regfile_reads           12107                       # number of predicate regfile reads
system.switch_cpus.pred_regfile_writes           4094                       # number of predicate regfile writes
system.switch_cpus.timesIdled                  101976                       # Number of times that the entire CPU went into an idle state and unscheduled itself
system.switch_cpus.vec_regfile_reads        230045598                       # number of vector regfile reads
system.switch_cpus.vec_regfile_writes       182965036                       # number of vector regfile writes
system.tol2bus.snoop_filter.hit_multi_requests            0                       # Number of requests hitting in the snoop filter with multiple (>1) holders of the requested data.
system.tol2bus.snoop_filter.hit_multi_snoops            0                       # Number of snoops hitting in the snoop filter with multiple (>1) holders of the requested data.
system.tol2bus.snoop_filter.hit_single_requests       549384                       # Number of requests hitting in the snoop filter with a single holder of the requested data.
system.tol2bus.snoop_filter.hit_single_snoops       235761                       # Number of snoops hitting in the snoop filter with a single holder of the requested data.
system.tol2bus.snoop_filter.tot_requests      1099376                       # Total number of requests made to the snoop filter.
system.tol2bus.snoop_filter.tot_snoops         235761                       # Total number of snoops made to the snoop filter.
system.clk_domain.clock                          1000                       # Clock period in ticks
system.cpu.dcache.demand_hits::.cpu.data            1                       # number of demand (read+write) hits
system.cpu.dcache.demand_hits::.switch_cpus.data    873580660                       # number of demand (read+write) hits
system.cpu.dcache.demand_hits::total        873580661                       # number of demand (read+write) hits
system.cpu.dcache.overall_hits::.cpu.data            1                       # number of overall hits
system.cpu.dcache.overall_hits::.switch_cpus.data    873580660                       # number of overall hits
system.cpu.dcache.overall_hits::total       873580661                       # number of overall hits
system.cpu.dcache.demand_misses::.cpu.data            3                       # number of demand (read+write) misses
system.cpu.dcache.demand_misses::.switch_cpus.data       406683                       # number of demand (read+write) misses
system.cpu.dcache.demand_misses::total         406686                       # number of demand (read+write) misses
system.cpu.dcache.overall_misses::.cpu.data            3                       # number of overall misses
system.cpu.dcache.overall_misses::.switch_cpus.data       406683                       # number of overall misses
system.cpu.dcache.overall_misses::total        406686                       # number of overall misses
system.cpu.dcache.demand_miss_latency::.switch_cpus.data  22690134958                       # number of demand (read+write) miss cycles
system.cpu.dcache.demand_miss_latency::total  22690134958                       # number of demand (read+write) miss cycles
system.cpu.dcache.overall_miss_latency::.switch_cpus.data  22690134958                       # number of overall miss cycles
system.cpu.dcache.overall_miss_latency::total  22690134958                       # number of overall miss cycles
system.cpu.dcache.demand_accesses::.cpu.data            4                       # number of demand (read+write) accesses
system.cpu.dcache.demand_accesses::.switch_cpus.data    873987343                       # number of demand (read+write) accesses
system.cpu.dcache.demand_accesses::total    873987347                       # number of demand (read+write) accesses
system.cpu.dcache.overall_accesses::.cpu.data            4                       # number of overall (read+write) accesses
system.cpu.dcache.overall_accesses::.switch_cpus.data    873987343                       # number of overall (read+write) accesses
system.cpu.dcache.overall_accesses::total    873987347                       # number of overall (read+write) accesses
system.cpu.dcache.demand_miss_rate::.cpu.data     0.750000                       # miss rate for demand accesses
system.cpu.dcache.demand_miss_rate::.switch_cpus.data     0.000465                       # miss rate for demand accesses
system.cpu.dcache.demand_miss_rate::total     0.000465                       # miss rate for demand accesses
system.cpu.dcache.overall_miss_rate::.cpu.data     0.750000                       # miss rate for overall accesses
system.cpu.dcache.overall_miss_rate::.switch_cpus.data     0.000465                       # miss rate for overall accesses
system.cpu.dcache.overall_miss_rate::total     0.000465                       # miss rate for overall accesses
system.cpu.dcache.demand_avg_miss_latency::.switch_cpus.data 55793.172958                       # average overall miss latency
system.cpu.dcache.demand_avg_miss_latency::total 55792.761388                       # average overall miss latency
system.cpu.dcache.overall_avg_miss_latency::.switch_cpus.data 55793.172958                       # average overall miss latency
system.cpu.dcache.overall_avg_miss_latency::total 55792.761388                       # average overall miss latency
system.cpu.dcache.blocked_cycles::no_mshrs       141358                       # number of cycles access was blocked
system.cpu.dcache.blocked_cycles::no_targets          125                       # number of cycles access was blocked
system.cpu.dcache.blocked::no_mshrs              2939                       # number of cycles access was blocked
system.cpu.dcache.blocked::no_targets               1                       # number of cycles access was blocked
system.cpu.dcache.avg_blocked_cycles::no_mshrs    48.097312                       # average number of cycles each access was blocked
system.cpu.dcache.avg_blocked_cycles::no_targets          125                       # average number of cycles each access was blocked
system.cpu.dcache.ghost_timestamp_misses            3                       # number of times timestamp policy causes a block to be inaccessible
system.cpu.dcache.ghost_commits                   172                       # number of cache lines moved from ghost to main
system.cpu.dcache.same_leapfrogs                  177                       # number of times leapfrogging occurs with a shared MSHR request
system.cpu.dcache.writebacks::.writebacks          172                       # number of writebacks
system.cpu.dcache.writebacks::total               172                       # number of writebacks
system.cpu.dcache.demand_mshr_hits::.switch_cpus.data        30743                       # number of demand (read+write) MSHR hits
system.cpu.dcache.demand_mshr_hits::total        30743                       # number of demand (read+write) MSHR hits
system.cpu.dcache.overall_mshr_hits::.switch_cpus.data        30743                       # number of overall MSHR hits
system.cpu.dcache.overall_mshr_hits::total        30743                       # number of overall MSHR hits
system.cpu.dcache.demand_mshr_misses::.switch_cpus.data       375940                       # number of demand (read+write) MSHR misses
system.cpu.dcache.demand_mshr_misses::total       375940                       # number of demand (read+write) MSHR misses
system.cpu.dcache.overall_mshr_misses::.switch_cpus.data       375940                       # number of overall MSHR misses
system.cpu.dcache.overall_mshr_misses::total       375940                       # number of overall MSHR misses
system.cpu.dcache.demand_mshr_miss_latency::.switch_cpus.data  20576481491                       # number of demand (read+write) MSHR miss cycles
system.cpu.dcache.demand_mshr_miss_latency::total  20576481491                       # number of demand (read+write) MSHR miss cycles
system.cpu.dcache.overall_mshr_miss_latency::.switch_cpus.data  20576481491                       # number of overall MSHR miss cycles
system.cpu.dcache.overall_mshr_miss_latency::total  20576481491                       # number of overall MSHR miss cycles
system.cpu.dcache.demand_mshr_miss_rate::.switch_cpus.data     0.000430                       # mshr miss rate for demand accesses
system.cpu.dcache.demand_mshr_miss_rate::total     0.000430                       # mshr miss rate for demand accesses
system.cpu.dcache.overall_mshr_miss_rate::.switch_cpus.data     0.000430                       # mshr miss rate for overall accesses
system.cpu.dcache.overall_mshr_miss_rate::total     0.000430                       # mshr miss rate for overall accesses
system.cpu.dcache.demand_avg_mshr_miss_latency::.switch_cpus.data 54733.418873                       # average overall mshr miss latency
system.cpu.dcache.demand_avg_mshr_miss_latency::total 54733.418873                       # average overall mshr miss latency
system.cpu.dcache.overall_avg_mshr_miss_latency::.switch_cpus.data 54733.418873                       # average overall mshr miss latency
system.cpu.dcache.overall_avg_mshr_miss_latency::total 54733.418873                       # average overall mshr miss latency
system.cpu.dcache.replacements                      0                       # number of replacements
system.cpu.dcache.ReadReq_hits::.cpu.data            1                       # number of ReadReq hits
system.cpu.dcache.ReadReq_hits::.switch_cpus.data    498825280                       # number of ReadReq hits
system.cpu.dcache.ReadReq_hits::total       498825281                       # number of ReadReq hits
system.cpu.dcache.ReadReq_misses::.cpu.data            3                       # number of ReadReq misses
system.cpu.dcache.ReadReq_misses::.switch_cpus.data       406087                       # number of ReadReq misses
system.cpu.dcache.ReadReq_misses::total        406090                       # number of ReadReq misses
system.cpu.dcache.ReadReq_miss_latency::.switch_cpus.data  22663551000                       # number of ReadReq miss cycles
system.cpu.dcache.ReadReq_miss_latency::total  22663551000                       # number of ReadReq miss cycles
system.cpu.dcache.ReadReq_accesses::.cpu.data            4                       # number of ReadReq accesses(hits+misses)
system.cpu.dcache.ReadReq_accesses::.switch_cpus.data    499231367                       # number of ReadReq accesses(hits+misses)
system.cpu.dcache.ReadReq_accesses::total    499231371                       # number of ReadReq accesses(hits+misses)
system.cpu.dcache.ReadReq_miss_rate::.cpu.data     0.750000                       # miss rate for ReadReq accesses
system.cpu.dcache.ReadReq_miss_rate::.switch_cpus.data     0.000813                       # miss rate for ReadReq accesses
system.cpu.dcache.ReadReq_miss_rate::total     0.000813                       # miss rate for ReadReq accesses
system.cpu.dcache.ReadReq_avg_miss_latency::.switch_cpus.data 55809.594988                       # average ReadReq miss latency
system.cpu.dcache.ReadReq_avg_miss_latency::total 55809.182693                       # average ReadReq miss latency
system.cpu.dcache.ReadReq_mshr_hits::.switch_cpus.data        30328                       # number of ReadReq MSHR hits
system.cpu.dcache.ReadReq_mshr_hits::total        30328                       # number of ReadReq MSHR hits
system.cpu.dcache.ReadReq_mshr_misses::.switch_cpus.data       375759                       # number of ReadReq MSHR misses
system.cpu.dcache.ReadReq_mshr_misses::total       375759                       # number of ReadReq MSHR misses
system.cpu.dcache.ReadReq_mshr_miss_latency::.switch_cpus.data  20568343500                       # number of ReadReq MSHR miss cycles
system.cpu.dcache.ReadReq_mshr_miss_latency::total  20568343500                       # number of ReadReq MSHR miss cycles
system.cpu.dcache.ReadReq_mshr_miss_rate::.switch_cpus.data     0.000753                       # mshr miss rate for ReadReq accesses
system.cpu.dcache.ReadReq_mshr_miss_rate::total     0.000753                       # mshr miss rate for ReadReq accesses
system.cpu.dcache.ReadReq_avg_mshr_miss_latency::.switch_cpus.data 54738.126033                       # average ReadReq mshr miss latency
system.cpu.dcache.ReadReq_avg_mshr_miss_latency::total 54738.126033                       # average ReadReq mshr miss latency
system.cpu.dcache.WriteReq_hits::.switch_cpus.data    374755380                       # number of WriteReq hits
system.cpu.dcache.WriteReq_hits::total      374755380                       # number of WriteReq hits
system.cpu.dcache.WriteReq_misses::.switch_cpus.data          596                       # number of WriteReq misses
system.cpu.dcache.WriteReq_misses::total          596                       # number of WriteReq misses
system.cpu.dcache.WriteReq_miss_latency::.switch_cpus.data     26583958                       # number of WriteReq miss cycles
system.cpu.dcache.WriteReq_miss_latency::total     26583958                       # number of WriteReq miss cycles
system.cpu.dcache.WriteReq_accesses::.switch_cpus.data    374755976                       # number of WriteReq accesses(hits+misses)
system.cpu.dcache.WriteReq_accesses::total    374755976                       # number of WriteReq accesses(hits+misses)
system.cpu.dcache.WriteReq_miss_rate::.switch_cpus.data     0.000002                       # miss rate for WriteReq accesses
system.cpu.dcache.WriteReq_miss_rate::total     0.000002                       # miss rate for WriteReq accesses
system.cpu.dcache.WriteReq_avg_miss_latency::.switch_cpus.data 44603.956376                       # average WriteReq miss latency
system.cpu.dcache.WriteReq_avg_miss_latency::total 44603.956376                       # average WriteReq miss latency
system.cpu.dcache.WriteReq_mshr_hits::.switch_cpus.data          415                       # number of WriteReq MSHR hits
system.cpu.dcache.WriteReq_mshr_hits::total          415                       # number of WriteReq MSHR hits
system.cpu.dcache.WriteReq_mshr_misses::.switch_cpus.data          181                       # number of WriteReq MSHR misses
system.cpu.dcache.WriteReq_mshr_misses::total          181                       # number of WriteReq MSHR misses
system.cpu.dcache.WriteReq_mshr_miss_latency::.switch_cpus.data      8137991                       # number of WriteReq MSHR miss cycles
system.cpu.dcache.WriteReq_mshr_miss_latency::total      8137991                       # number of WriteReq MSHR miss cycles
system.cpu.dcache.WriteReq_mshr_miss_rate::.switch_cpus.data     0.000000                       # mshr miss rate for WriteReq accesses
system.cpu.dcache.WriteReq_mshr_miss_rate::total     0.000000                       # mshr miss rate for WriteReq accesses
system.cpu.dcache.WriteReq_avg_mshr_miss_latency::.switch_cpus.data 44961.276243                       # average WriteReq mshr miss latency
system.cpu.dcache.WriteReq_avg_mshr_miss_latency::total 44961.276243                       # average WriteReq mshr miss latency
system.cpu.dcache.ghosttags.tagsinuse        2.939998                       # Cycle average of tags in use
system.cpu.dcache.ghosttags.total_refs              0                       # Total number of references to valid blocks.
system.cpu.dcache.ghosttags.sampled_refs            0                       # Sample count of references to valid blocks.
system.cpu.dcache.ghosttags.avg_refs              nan                       # Average number of references to valid blocks.
system.cpu.dcache.ghosttags.warmup_cycle 5270320859500                       # Cycle when the warmup percentage was hit.
system.cpu.dcache.ghosttags.occ_blocks::.switch_cpus.data 240982.648450                       # Average occupied blocks per requestor
system.cpu.dcache.ghosttags.occ_percent::.switch_cpus.data  7530.707764                       # Average percentage of cache occupancy
system.cpu.dcache.ghosttags.occ_percent::total  7530.707764                       # Average percentage of cache occupancy
system.cpu.dcache.ghosttags.tag_accesses      1211918                       # Number of tag accesses
system.cpu.dcache.ghosttags.data_accesses      1211918                       # Number of data accesses
system.cpu.dcache.ghosttags.repl_invalid            0                       # Number of initial replacements
system.cpu.dcache.ghosttags.repl_valid_tag            0                       # Number of local replacements
system.cpu.dcache.ghosttags.repl_valid_data            0                       # Number of global replacements
system.cpu.dcache.ghosttags.power_state.pwrStateResidencyTicks::UNDEFINED 5648906749500                       # Cumulative time (in ticks) in various power states
system.cpu.dcache.power_state.pwrStateResidencyTicks::UNDEFINED 5648906749500                       # Cumulative time (in ticks) in various power states
system.cpu.dcache.tags.tagsinuse         -240766.586418                       # Cycle average of tags in use
system.cpu.dcache.tags.total_refs           873957052                       # Total number of references to valid blocks.
system.cpu.dcache.tags.sampled_refs            375983                       # Sample count of references to valid blocks.
system.cpu.dcache.tags.avg_refs           2324.458957                       # Average number of references to valid blocks.
system.cpu.dcache.tags.warmup_cycle      5270320673500                       # Cycle when the warmup percentage was hit.
system.cpu.dcache.tags.occ_blocks::.cpu.data     3.000000                       # Average occupied blocks per requestor
system.cpu.dcache.tags.occ_blocks::.switch_cpus.data -240769.586418                       # Average occupied blocks per requestor
system.cpu.dcache.tags.occ_percent::.cpu.data     0.005859                       # Average percentage of cache occupancy
system.cpu.dcache.tags.occ_percent::.switch_cpus.data  -470.253098                       # Average percentage of cache occupancy
system.cpu.dcache.tags.occ_percent::total  -470.247239                       # Average percentage of cache occupancy
system.cpu.dcache.tags.occ_task_id_blocks::1024          228                       # Occupied blocks per task id
system.cpu.dcache.tags.age_task_id_blocks_1024::3            2                       # Occupied blocks per task id
system.cpu.dcache.tags.age_task_id_blocks_1024::4          226                       # Occupied blocks per task id
system.cpu.dcache.tags.occ_task_id_percent::1024     0.445312                       # Percentage of cache occupancy per task id
system.cpu.dcache.tags.tag_accesses        6991899004                       # Number of tag accesses
system.cpu.dcache.tags.data_accesses       6991899004                       # Number of data accesses
system.cpu.dcache.tags.repl_invalid                 0                       # Number of initial replacements
system.cpu.dcache.tags.repl_valid_tag               0                       # Number of local replacements
system.cpu.dcache.tags.repl_valid_data              0                       # Number of global replacements
system.cpu.dcache.tags.power_state.pwrStateResidencyTicks::UNDEFINED 5648906749500                       # Cumulative time (in ticks) in various power states
system.cpu.dtb.instHits                             0                       # ITB inst hits
system.cpu.dtb.instMisses                           0                       # ITB inst misses
system.cpu.dtb.readHits                             0                       # DTB read hits
system.cpu.dtb.readMisses                           0                       # DTB read misses
system.cpu.dtb.writeHits                            0                       # DTB write hits
system.cpu.dtb.writeMisses                          0                       # DTB write misses
system.cpu.dtb.inserts                              0                       # Number of times an entry is inserted into the TLB
system.cpu.dtb.flushTlb                             2                       # Number of times complete TLB was flushed
system.cpu.dtb.flushTlbMva                          0                       # Number of times TLB was flushed by MVA
system.cpu.dtb.flushTlbMvaAsid                      0                       # Number of times TLB was flushed by MVA & ASID
system.cpu.dtb.flushTlbAsid                         0                       # Number of times TLB was flushed by ASID
system.cpu.dtb.flushedEntries                       0                       # Number of entries that have been flushed from TLB
system.cpu.dtb.alignFaults                          0                       # Number of TLB faults due to alignment restrictions
system.cpu.dtb.prefetchFaults                       0                       # Number of TLB faults due to prefetch
system.cpu.dtb.domainFaults                         0                       # Number of TLB faults due to domain restrictions
system.cpu.dtb.permsFaults                          0                       # Number of TLB faults due to permissions restrictions
system.cpu.dtb.readAccesses                         0                       # DTB read accesses
system.cpu.dtb.writeAccesses                        0                       # DTB write accesses
system.cpu.dtb.instAccesses                         0                       # ITB inst accesses
system.cpu.dtb.hits                                 0                       # Total TLB (inst and data) hits
system.cpu.dtb.misses                               0                       # Total TLB (inst and data) misses
system.cpu.dtb.accesses                             0                       # Total TLB (inst and data) accesses
system.cpu.dtb.stage2_mmu.stage2_tlb.instHits            0                       # ITB inst hits
system.cpu.dtb.stage2_mmu.stage2_tlb.instMisses            0                       # ITB inst misses
system.cpu.dtb.stage2_mmu.stage2_tlb.readHits            0                       # DTB read hits
system.cpu.dtb.stage2_mmu.stage2_tlb.readMisses            0                       # DTB read misses
system.cpu.dtb.stage2_mmu.stage2_tlb.writeHits            0                       # DTB write hits
system.cpu.dtb.stage2_mmu.stage2_tlb.writeMisses            0                       # DTB write misses
system.cpu.dtb.stage2_mmu.stage2_tlb.inserts            0                       # Number of times an entry is inserted into the TLB
system.cpu.dtb.stage2_mmu.stage2_tlb.flushTlb            0                       # Number of times complete TLB was flushed
system.cpu.dtb.stage2_mmu.stage2_tlb.flushTlbMva            0                       # Number of times TLB was flushed by MVA
system.cpu.dtb.stage2_mmu.stage2_tlb.flushTlbMvaAsid            0                       # Number of times TLB was flushed by MVA & ASID
system.cpu.dtb.stage2_mmu.stage2_tlb.flushTlbAsid            0                       # Number of times TLB was flushed by ASID
system.cpu.dtb.stage2_mmu.stage2_tlb.flushedEntries            0                       # Number of entries that have been flushed from TLB
system.cpu.dtb.stage2_mmu.stage2_tlb.alignFaults            0                       # Number of TLB faults due to alignment restrictions
system.cpu.dtb.stage2_mmu.stage2_tlb.prefetchFaults            0                       # Number of TLB faults due to prefetch
system.cpu.dtb.stage2_mmu.stage2_tlb.domainFaults            0                       # Number of TLB faults due to domain restrictions
system.cpu.dtb.stage2_mmu.stage2_tlb.permsFaults            0                       # Number of TLB faults due to permissions restrictions
system.cpu.dtb.stage2_mmu.stage2_tlb.readAccesses            0                       # DTB read accesses
system.cpu.dtb.stage2_mmu.stage2_tlb.writeAccesses            0                       # DTB write accesses
system.cpu.dtb.stage2_mmu.stage2_tlb.instAccesses            0                       # ITB inst accesses
system.cpu.dtb.stage2_mmu.stage2_tlb.hits            0                       # Total TLB (inst and data) hits
system.cpu.dtb.stage2_mmu.stage2_tlb.misses            0                       # Total TLB (inst and data) misses
system.cpu.dtb.stage2_mmu.stage2_tlb.accesses            0                       # Total TLB (inst and data) accesses
system.cpu.dtb.stage2_mmu.stage2_tlb.walker.walks            0                       # Table walker walks requested
system.cpu.dtb.stage2_mmu.stage2_tlb.walker.requestOrigin_Requested::Data            0                       # Table walker requests started/completed, data/inst
system.cpu.dtb.stage2_mmu.stage2_tlb.walker.requestOrigin_Requested::Inst            0                       # Table walker requests started/completed, data/inst
system.cpu.dtb.stage2_mmu.stage2_tlb.walker.requestOrigin_Requested::total            0                       # Table walker requests started/completed, data/inst
system.cpu.dtb.stage2_mmu.stage2_tlb.walker.requestOrigin_Completed::Data            0                       # Table walker requests started/completed, data/inst
system.cpu.dtb.stage2_mmu.stage2_tlb.walker.requestOrigin_Completed::Inst            0                       # Table walker requests started/completed, data/inst
system.cpu.dtb.stage2_mmu.stage2_tlb.walker.requestOrigin_Completed::total            0                       # Table walker requests started/completed, data/inst
system.cpu.dtb.stage2_mmu.stage2_tlb.walker.requestOrigin::total            0                       # Table walker requests started/completed, data/inst
system.cpu.dtb.stage2_mmu.stage2_tlb.walker.power_state.pwrStateResidencyTicks::UNDEFINED 5648906749500                       # Cumulative time (in ticks) in various power states
system.cpu.dtb.walker.walks                         0                       # Table walker walks requested
system.cpu.dtb.walker.requestOrigin_Requested::Data            0                       # Table walker requests started/completed, data/inst
system.cpu.dtb.walker.requestOrigin_Requested::Inst            0                       # Table walker requests started/completed, data/inst
system.cpu.dtb.walker.requestOrigin_Requested::total            0                       # Table walker requests started/completed, data/inst
system.cpu.dtb.walker.requestOrigin_Completed::Data            0                       # Table walker requests started/completed, data/inst
system.cpu.dtb.walker.requestOrigin_Completed::Inst            0                       # Table walker requests started/completed, data/inst
system.cpu.dtb.walker.requestOrigin_Completed::total            0                       # Table walker requests started/completed, data/inst
system.cpu.dtb.walker.requestOrigin::total            0                       # Table walker requests started/completed, data/inst
system.cpu.dtb.walker.power_state.pwrStateResidencyTicks::UNDEFINED 5648906749500                       # Cumulative time (in ticks) in various power states
system.cpu.icache.demand_hits::.cpu.inst           16                       # number of demand (read+write) hits
system.cpu.icache.demand_hits::.switch_cpus.inst    252867639                       # number of demand (read+write) hits
system.cpu.icache.demand_hits::total        252867655                       # number of demand (read+write) hits
system.cpu.icache.overall_hits::.cpu.inst           16                       # number of overall hits
system.cpu.icache.overall_hits::.switch_cpus.inst    252867639                       # number of overall hits
system.cpu.icache.overall_hits::total       252867655                       # number of overall hits
system.cpu.icache.demand_misses::.cpu.inst            3                       # number of demand (read+write) misses
system.cpu.icache.demand_misses::.switch_cpus.inst       193003                       # number of demand (read+write) misses
system.cpu.icache.demand_misses::total         193006                       # number of demand (read+write) misses
system.cpu.icache.overall_misses::.cpu.inst            3                       # number of overall misses
system.cpu.icache.overall_misses::.switch_cpus.inst       193003                       # number of overall misses
system.cpu.icache.overall_misses::total        193006                       # number of overall misses
system.cpu.icache.demand_miss_latency::.switch_cpus.inst   4045357446                       # number of demand (read+write) miss cycles
system.cpu.icache.demand_miss_latency::total   4045357446                       # number of demand (read+write) miss cycles
system.cpu.icache.overall_miss_latency::.switch_cpus.inst   4045357446                       # number of overall miss cycles
system.cpu.icache.overall_miss_latency::total   4045357446                       # number of overall miss cycles
system.cpu.icache.demand_accesses::.cpu.inst           19                       # number of demand (read+write) accesses
system.cpu.icache.demand_accesses::.switch_cpus.inst    253060642                       # number of demand (read+write) accesses
system.cpu.icache.demand_accesses::total    253060661                       # number of demand (read+write) accesses
system.cpu.icache.overall_accesses::.cpu.inst           19                       # number of overall (read+write) accesses
system.cpu.icache.overall_accesses::.switch_cpus.inst    253060642                       # number of overall (read+write) accesses
system.cpu.icache.overall_accesses::total    253060661                       # number of overall (read+write) accesses
system.cpu.icache.demand_miss_rate::.cpu.inst     0.157895                       # miss rate for demand accesses
system.cpu.icache.demand_miss_rate::.switch_cpus.inst     0.000763                       # miss rate for demand accesses
system.cpu.icache.demand_miss_rate::total     0.000763                       # miss rate for demand accesses
system.cpu.icache.overall_miss_rate::.cpu.inst     0.157895                       # miss rate for overall accesses
system.cpu.icache.overall_miss_rate::.switch_cpus.inst     0.000763                       # miss rate for overall accesses
system.cpu.icache.overall_miss_rate::total     0.000763                       # miss rate for overall accesses
system.cpu.icache.demand_avg_miss_latency::.switch_cpus.inst 20960.075470                       # average overall miss latency
system.cpu.icache.demand_avg_miss_latency::total 20959.749676                       # average overall miss latency
system.cpu.icache.overall_avg_miss_latency::.switch_cpus.inst 20960.075470                       # average overall miss latency
system.cpu.icache.overall_avg_miss_latency::total 20959.749676                       # average overall miss latency
system.cpu.icache.blocked_cycles::no_mshrs         6385                       # number of cycles access was blocked
system.cpu.icache.blocked_cycles::no_targets            0                       # number of cycles access was blocked
system.cpu.icache.blocked::no_mshrs               286                       # number of cycles access was blocked
system.cpu.icache.blocked::no_targets               0                       # number of cycles access was blocked
system.cpu.icache.avg_blocked_cycles::no_mshrs    22.325175                       # average number of cycles each access was blocked
system.cpu.icache.avg_blocked_cycles::no_targets          nan                       # average number of cycles each access was blocked
system.cpu.icache.ghost_timestamp_misses            0                       # number of times timestamp policy causes a block to be inaccessible
system.cpu.icache.ghost_commits                106263                       # number of cache lines moved from ghost to main
system.cpu.icache.same_leapfrogs                    0                       # number of times leapfrogging occurs with a shared MSHR request
system.cpu.icache.writebacks::.writebacks       212018                       # number of writebacks
system.cpu.icache.writebacks::total            212018                       # number of writebacks
system.cpu.icache.demand_mshr_hits::.switch_cpus.inst        18825                       # number of demand (read+write) MSHR hits
system.cpu.icache.demand_mshr_hits::total        18825                       # number of demand (read+write) MSHR hits
system.cpu.icache.overall_mshr_hits::.switch_cpus.inst        18825                       # number of overall MSHR hits
system.cpu.icache.overall_mshr_hits::total        18825                       # number of overall MSHR hits
system.cpu.icache.demand_mshr_misses::.switch_cpus.inst       174178                       # number of demand (read+write) MSHR misses
system.cpu.icache.demand_mshr_misses::total       174178                       # number of demand (read+write) MSHR misses
system.cpu.icache.overall_mshr_misses::.switch_cpus.inst       174178                       # number of overall MSHR misses
system.cpu.icache.overall_mshr_misses::total       174178                       # number of overall MSHR misses
system.cpu.icache.demand_mshr_miss_latency::.switch_cpus.inst   3599147495                       # number of demand (read+write) MSHR miss cycles
system.cpu.icache.demand_mshr_miss_latency::total   3599147495                       # number of demand (read+write) MSHR miss cycles
system.cpu.icache.overall_mshr_miss_latency::.switch_cpus.inst   3599147495                       # number of overall MSHR miss cycles
system.cpu.icache.overall_mshr_miss_latency::total   3599147495                       # number of overall MSHR miss cycles
system.cpu.icache.demand_mshr_miss_rate::.switch_cpus.inst     0.000688                       # mshr miss rate for demand accesses
system.cpu.icache.demand_mshr_miss_rate::total     0.000688                       # mshr miss rate for demand accesses
system.cpu.icache.overall_mshr_miss_rate::.switch_cpus.inst     0.000688                       # mshr miss rate for overall accesses
system.cpu.icache.overall_mshr_miss_rate::total     0.000688                       # mshr miss rate for overall accesses
system.cpu.icache.demand_avg_mshr_miss_latency::.switch_cpus.inst 20663.617076                       # average overall mshr miss latency
system.cpu.icache.demand_avg_mshr_miss_latency::total 20663.617076                       # average overall mshr miss latency
system.cpu.icache.overall_avg_mshr_miss_latency::.switch_cpus.inst 20663.617076                       # average overall mshr miss latency
system.cpu.icache.overall_avg_mshr_miss_latency::total 20663.617076                       # average overall mshr miss latency
system.cpu.icache.replacements                 105755                       # number of replacements
system.cpu.icache.ReadReq_hits::.cpu.inst           16                       # number of ReadReq hits
system.cpu.icache.ReadReq_hits::.switch_cpus.inst    252867639                       # number of ReadReq hits
system.cpu.icache.ReadReq_hits::total       252867655                       # number of ReadReq hits
system.cpu.icache.ReadReq_misses::.cpu.inst            3                       # number of ReadReq misses
system.cpu.icache.ReadReq_misses::.switch_cpus.inst       193003                       # number of ReadReq misses
system.cpu.icache.ReadReq_misses::total        193006                       # number of ReadReq misses
system.cpu.icache.ReadReq_miss_latency::.switch_cpus.inst   4045357446                       # number of ReadReq miss cycles
system.cpu.icache.ReadReq_miss_latency::total   4045357446                       # number of ReadReq miss cycles
system.cpu.icache.ReadReq_accesses::.cpu.inst           19                       # number of ReadReq accesses(hits+misses)
system.cpu.icache.ReadReq_accesses::.switch_cpus.inst    253060642                       # number of ReadReq accesses(hits+misses)
system.cpu.icache.ReadReq_accesses::total    253060661                       # number of ReadReq accesses(hits+misses)
system.cpu.icache.ReadReq_miss_rate::.cpu.inst     0.157895                       # miss rate for ReadReq accesses
system.cpu.icache.ReadReq_miss_rate::.switch_cpus.inst     0.000763                       # miss rate for ReadReq accesses
system.cpu.icache.ReadReq_miss_rate::total     0.000763                       # miss rate for ReadReq accesses
system.cpu.icache.ReadReq_avg_miss_latency::.switch_cpus.inst 20960.075470                       # average ReadReq miss latency
system.cpu.icache.ReadReq_avg_miss_latency::total 20959.749676                       # average ReadReq miss latency
system.cpu.icache.ReadReq_mshr_hits::.switch_cpus.inst        18825                       # number of ReadReq MSHR hits
system.cpu.icache.ReadReq_mshr_hits::total        18825                       # number of ReadReq MSHR hits
system.cpu.icache.ReadReq_mshr_misses::.switch_cpus.inst       174178                       # number of ReadReq MSHR misses
system.cpu.icache.ReadReq_mshr_misses::total       174178                       # number of ReadReq MSHR misses
system.cpu.icache.ReadReq_mshr_miss_latency::.switch_cpus.inst   3599147495                       # number of ReadReq MSHR miss cycles
system.cpu.icache.ReadReq_mshr_miss_latency::total   3599147495                       # number of ReadReq MSHR miss cycles
system.cpu.icache.ReadReq_mshr_miss_rate::.switch_cpus.inst     0.000688                       # mshr miss rate for ReadReq accesses
system.cpu.icache.ReadReq_mshr_miss_rate::total     0.000688                       # mshr miss rate for ReadReq accesses
system.cpu.icache.ReadReq_avg_mshr_miss_latency::.switch_cpus.inst 20663.617076                       # average ReadReq mshr miss latency
system.cpu.icache.ReadReq_avg_mshr_miss_latency::total 20663.617076                       # average ReadReq mshr miss latency
system.cpu.icache.ghosttags.tagsinuse    -55448.807436                       # Cycle average of tags in use
system.cpu.icache.ghosttags.total_refs              0                       # Total number of references to valid blocks.
system.cpu.icache.ghosttags.sampled_refs            0                       # Sample count of references to valid blocks.
system.cpu.icache.ghosttags.avg_refs              nan                       # Average number of references to valid blocks.
system.cpu.icache.ghosttags.warmup_cycle 5270320843500                       # Cycle when the warmup percentage was hit.
system.cpu.icache.ghosttags.occ_blocks::.switch_cpus.inst 90378.115886                       # Average occupied blocks per requestor
system.cpu.icache.ghosttags.occ_percent::.switch_cpus.inst  2824.316121                       # Average percentage of cache occupancy
system.cpu.icache.ghosttags.occ_percent::total  2824.316121                       # Average percentage of cache occupancy
system.cpu.icache.ghosttags.tag_accesses       604968                       # Number of tag accesses
system.cpu.icache.ghosttags.data_accesses       604968                       # Number of data accesses
system.cpu.icache.ghosttags.repl_invalid            0                       # Number of initial replacements
system.cpu.icache.ghosttags.repl_valid_tag            0                       # Number of local replacements
system.cpu.icache.ghosttags.repl_valid_data            0                       # Number of global replacements
system.cpu.icache.ghosttags.power_state.pwrStateResidencyTicks::UNDEFINED 5648906749500                       # Cumulative time (in ticks) in various power states
system.cpu.icache.power_state.pwrStateResidencyTicks::UNDEFINED 5648906749500                       # Cumulative time (in ticks) in various power states
system.cpu.icache.tags.tagsinuse         -89872.007494                       # Cycle average of tags in use
system.cpu.icache.tags.total_refs           253148098                       # Total number of references to valid blocks.
system.cpu.icache.tags.sampled_refs            280443                       # Sample count of references to valid blocks.
system.cpu.icache.tags.avg_refs            902.672194                       # Average number of references to valid blocks.
system.cpu.icache.tags.warmup_cycle      5270320673000                       # Cycle when the warmup percentage was hit.
system.cpu.icache.tags.occ_blocks::.cpu.inst     0.235463                       # Average occupied blocks per requestor
system.cpu.icache.tags.occ_blocks::.switch_cpus.inst -89872.242957                       # Average occupied blocks per requestor
system.cpu.icache.tags.occ_percent::.cpu.inst     0.000460                       # Average percentage of cache occupancy
system.cpu.icache.tags.occ_percent::.switch_cpus.inst  -175.531725                       # Average percentage of cache occupancy
system.cpu.icache.tags.occ_percent::total  -175.531265                       # Average percentage of cache occupancy
system.cpu.icache.tags.occ_task_id_blocks::1024          512                       # Occupied blocks per task id
system.cpu.icache.tags.age_task_id_blocks_1024::3          512                       # Occupied blocks per task id
system.cpu.icache.tags.occ_task_id_percent::1024            1                       # Percentage of cache occupancy per task id
system.cpu.icache.tags.tag_accesses        2024591555                       # Number of tag accesses
system.cpu.icache.tags.data_accesses       2024591555                       # Number of data accesses
system.cpu.icache.tags.repl_invalid                 0                       # Number of initial replacements
system.cpu.icache.tags.repl_valid_tag               0                       # Number of local replacements
system.cpu.icache.tags.repl_valid_data              0                       # Number of global replacements
system.cpu.icache.tags.power_state.pwrStateResidencyTicks::UNDEFINED 5648906749500                       # Cumulative time (in ticks) in various power states
system.cpu.itb.instHits                             0                       # ITB inst hits
system.cpu.itb.instMisses                           0                       # ITB inst misses
system.cpu.itb.readHits                             0                       # DTB read hits
system.cpu.itb.readMisses                           0                       # DTB read misses
system.cpu.itb.writeHits                            0                       # DTB write hits
system.cpu.itb.writeMisses                          0                       # DTB write misses
system.cpu.itb.inserts                              0                       # Number of times an entry is inserted into the TLB
system.cpu.itb.flushTlb                             2                       # Number of times complete TLB was flushed
system.cpu.itb.flushTlbMva                          0                       # Number of times TLB was flushed by MVA
system.cpu.itb.flushTlbMvaAsid                      0                       # Number of times TLB was flushed by MVA & ASID
system.cpu.itb.flushTlbAsid                         0                       # Number of times TLB was flushed by ASID
system.cpu.itb.flushedEntries                       0                       # Number of entries that have been flushed from TLB
system.cpu.itb.alignFaults                          0                       # Number of TLB faults due to alignment restrictions
system.cpu.itb.prefetchFaults                       0                       # Number of TLB faults due to prefetch
system.cpu.itb.domainFaults                         0                       # Number of TLB faults due to domain restrictions
system.cpu.itb.permsFaults                          0                       # Number of TLB faults due to permissions restrictions
system.cpu.itb.readAccesses                         0                       # DTB read accesses
system.cpu.itb.writeAccesses                        0                       # DTB write accesses
system.cpu.itb.instAccesses                         0                       # ITB inst accesses
system.cpu.itb.hits                                 0                       # Total TLB (inst and data) hits
system.cpu.itb.misses                               0                       # Total TLB (inst and data) misses
system.cpu.itb.accesses                             0                       # Total TLB (inst and data) accesses
system.cpu.itb.stage2_mmu.stage2_tlb.instHits            0                       # ITB inst hits
system.cpu.itb.stage2_mmu.stage2_tlb.instMisses            0                       # ITB inst misses
system.cpu.itb.stage2_mmu.stage2_tlb.readHits            0                       # DTB read hits
system.cpu.itb.stage2_mmu.stage2_tlb.readMisses            0                       # DTB read misses
system.cpu.itb.stage2_mmu.stage2_tlb.writeHits            0                       # DTB write hits
system.cpu.itb.stage2_mmu.stage2_tlb.writeMisses            0                       # DTB write misses
system.cpu.itb.stage2_mmu.stage2_tlb.inserts            0                       # Number of times an entry is inserted into the TLB
system.cpu.itb.stage2_mmu.stage2_tlb.flushTlb            0                       # Number of times complete TLB was flushed
system.cpu.itb.stage2_mmu.stage2_tlb.flushTlbMva            0                       # Number of times TLB was flushed by MVA
system.cpu.itb.stage2_mmu.stage2_tlb.flushTlbMvaAsid            0                       # Number of times TLB was flushed by MVA & ASID
system.cpu.itb.stage2_mmu.stage2_tlb.flushTlbAsid            0                       # Number of times TLB was flushed by ASID
system.cpu.itb.stage2_mmu.stage2_tlb.flushedEntries            0                       # Number of entries that have been flushed from TLB
system.cpu.itb.stage2_mmu.stage2_tlb.alignFaults            0                       # Number of TLB faults due to alignment restrictions
system.cpu.itb.stage2_mmu.stage2_tlb.prefetchFaults            0                       # Number of TLB faults due to prefetch
[...]
system.switch_cpus.fetch.cycles             477026928                       # Number of cycles fetch has run and was not squashing or blocked
system.switch_cpus.fetch.squashCycles        28303552                       # Number of cycles fetch has spent squashing
system.switch_cpus.fetch.miscStallCycles          178                       # Number of cycles fetch has spent waiting on interrupts,or bad addresses, or out of MSHRs
system.switch_cpus.fetch.pendingTrapStallCycles          204                       # Number of stall cycles due to pending traps
system.switch_cpus.fetch.icacheWaitRetryStallCycles          902                       # Number of stall cycles due to full MSHR
system.switch_cpus.fetch.cacheLines         253060645                       # Number of cache lines fetched
system.switch_cpus.fetch.icacheSquashes       4507558                       # Number of outstanding Icache misses that were squashed
system.switch_cpus.fetch.nisnDist::samples    756223037                       # Number of instructions fetched each cycle (Total)
system.switch_cpus.fetch.nisnDist::mean      3.565255                       # Number of instructions fetched each cycle (Total)
system.switch_cpus.fetch.nisnDist::stdev     3.493027                       # Number of instructions fetched each cycle (Total)
system.switch_cpus.fetch.nisnDist::underflows            0      0.00%      0.00% # Number of instructions fetched each cycle (Total)
system.switch_cpus.fetch.nisnDist::0        283572767     37.50%     37.50% # Number of instructions fetched each cycle (Total)
system.switch_cpus.fetch.nisnDist::1         54981067      7.27%     44.77% # Number of instructions fetched each cycle (Total)
system.switch_cpus.fetch.nisnDist::2         38129617      5.04%     49.81% # Number of instructions fetched each cycle (Total)
system.switch_cpus.fetch.nisnDist::3         46422246      6.14%     55.95% # Number of instructions fetched each cycle (Total)
system.switch_cpus.fetch.nisnDist::4         26285558      3.48%     59.43% # Number of instructions fetched each cycle (Total)
system.switch_cpus.fetch.nisnDist::5         20821165      2.75%     62.18% # Number of instructions fetched each cycle (Total)
system.switch_cpus.fetch.nisnDist::6         21923414      2.90%     65.08% # Number of instructions fetched each cycle (Total)
system.switch_cpus.fetch.nisnDist::7         27865492      3.68%     68.76% # Number of instructions fetched each cycle (Total)
system.switch_cpus.fetch.nisnDist::8        236221711     31.24%    100.00% # Number of instructions fetched each cycle (Total)
system.switch_cpus.fetch.nisnDist::overflows            0      0.00%    100.00% # Number of instructions fetched each cycle (Total)
system.switch_cpus.fetch.nisnDist::min_value            0                       # Number of instructions fetched each cycle (Total)
system.switch_cpus.fetch.nisnDist::max_value            8                       # Number of instructions fetched each cycle (Total)
system.switch_cpus.fetch.nisnDist::total    756223037                       # Number of instructions fetched each cycle (Total)
system.switch_cpus.fetch.branchRate          0.412762                       # Number of branch fetches per cycle
system.switch_cpus.fetch.rate                3.336739                       # Number of inst fetches per cycle
system.switch_cpus.itb.instHits                     0                       # ITB inst hits
system.switch_cpus.itb.instMisses                   0                       # ITB inst misses
system.switch_cpus.itb.readHits                     0                       # DTB read hits
system.switch_cpus.itb.readMisses                   0                       # DTB read misses
system.switch_cpus.itb.writeHits                    0                       # DTB write hits
system.switch_cpus.itb.writeMisses                  0                       # DTB write misses
system.switch_cpus.itb.inserts                      0                       # Number of times an entry is inserted into the TLB
system.switch_cpus.itb.flushTlb                     0                       # Number of times complete TLB was flushed
system.switch_cpus.itb.flushTlbMva                  0                       # Number of times TLB was flushed by MVA
system.switch_cpus.itb.flushTlbMvaAsid              0                       # Number of times TLB was flushed by MVA & ASID
system.switch_cpus.itb.flushTlbAsid                 0                       # Number of times TLB was flushed by ASID
system.switch_cpus.itb.flushedEntries               0                       # Number of entries that have been flushed from TLB
system.switch_cpus.itb.alignFaults                  0                       # Number of TLB faults due to alignment restrictions
system.switch_cpus.itb.prefetchFaults               0                       # Number of TLB faults due to prefetch
system.switch_cpus.itb.domainFaults                 0                       # Number of TLB faults due to domain restrictions
system.switch_cpus.itb.permsFaults                  0                       # Number of TLB faults due to permissions restrictions
system.switch_cpus.itb.readAccesses                 0                       # DTB read accesses
system.switch_cpus.itb.writeAccesses                0                       # DTB write accesses
system.switch_cpus.itb.instAccesses                 0                       # ITB inst accesses
system.switch_cpus.itb.hits                         0                       # Total TLB (inst and data) hits
system.switch_cpus.itb.misses                       0                       # Total TLB (inst and data) misses
system.switch_cpus.itb.accesses                     0                       # Total TLB (inst and data) accesses
system.switch_cpus.itb.stage2_mmu.stage2_tlb.instHits            0                       # ITB inst hits
system.switch_cpus.itb.stage2_mmu.stage2_tlb.instMisses            0                       # ITB inst misses
system.switch_cpus.itb.stage2_mmu.stage2_tlb.readHits            0                       # DTB read hits
system.switch_cpus.itb.stage2_mmu.stage2_tlb.readMisses            0                       # DTB read misses
system.switch_cpus.itb.stage2_mmu.stage2_tlb.writeHits            0                       # DTB write hits
system.switch_cpus.itb.stage2_mmu.stage2_tlb.writeMisses            0                       # DTB write misses
system.switch_cpus.itb.stage2_mmu.stage2_tlb.inserts            0                       # Number of times an entry is inserted into the TLB
system.switch_cpus.itb.stage2_mmu.stage2_tlb.flushTlb            0                       # Number of times complete TLB was flushed
system.switch_cpus.itb.stage2_mmu.stage2_tlb.flushTlbMva            0                       # Number of times TLB was flushed by MVA
system.switch_cpus.itb.stage2_mmu.stage2_tlb.flushTlbMvaAsid            0                       # Number of times TLB was flushed by MVA & ASID
system.switch_cpus.itb.stage2_mmu.stage2_tlb.flushTlbAsid            0                       # Number of times TLB was flushed by ASID
system.switch_cpus.itb.stage2_mmu.stage2_tlb.flushedEntries            0                       # Number of entries that have been flushed from TLB
system.switch_cpus.itb.stage2_mmu.stage2_tlb.alignFaults            0                       # Number of TLB faults due to alignment restrictions
system.switch_cpus.itb.stage2_mmu.stage2_tlb.prefetchFaults            0                       # Number of TLB faults due to prefetch
system.switch_cpus.itb.stage2_mmu.stage2_tlb.domainFaults            0                       # Number of TLB faults due to domain restrictions
system.switch_cpus.itb.stage2_mmu.stage2_tlb.permsFaults            0                       # Number of TLB faults due to permissions restrictions
system.switch_cpus.itb.stage2_mmu.stage2_tlb.readAccesses            0                       # DTB read accesses
system.switch_cpus.itb.stage2_mmu.stage2_tlb.writeAccesses            0                       # DTB write accesses
system.switch_cpus.itb.stage2_mmu.stage2_tlb.instAccesses            0                       # ITB inst accesses
system.switch_cpus.itb.stage2_mmu.stage2_tlb.hits            0                       # Total TLB (inst and data) hits
system.switch_cpus.itb.stage2_mmu.stage2_tlb.misses            0                       # Total TLB (inst and data) misses
system.switch_cpus.itb.stage2_mmu.stage2_tlb.accesses            0                       # Total TLB (inst and data) accesses
system.switch_cpus.itb.stage2_mmu.stage2_tlb.walker.walks            0                       # Table walker walks requested
system.switch_cpus.itb.stage2_mmu.stage2_tlb.walker.requestOrigin_Requested::Data            0                       # Table walker requests started/completed, data/inst
system.switch_cpus.itb.stage2_mmu.stage2_tlb.walker.requestOrigin_Requested::Inst            0                       # Table walker requests started/completed, data/inst
system.switch_cpus.itb.stage2_mmu.stage2_tlb.walker.requestOrigin_Requested::total            0                       # Table walker requests started/completed, data/inst
system.switch_cpus.itb.stage2_mmu.stage2_tlb.walker.requestOrigin_Completed::Data            0                       # Table walker requests started/completed, data/inst
system.switch_cpus.itb.stage2_mmu.stage2_tlb.walker.requestOrigin_Completed::Inst            0                       # Table walker requests started/completed, data/inst
system.switch_cpus.itb.stage2_mmu.stage2_tlb.walker.requestOrigin_Completed::total            0                       # Table walker requests started/completed, data/inst
system.switch_cpus.itb.stage2_mmu.stage2_tlb.walker.requestOrigin::total            0                       # Table walker requests started/completed, data/inst
system.switch_cpus.itb.stage2_mmu.stage2_tlb.walker.power_state.pwrStateResidencyTicks::UNDEFINED 5648906749500                       # Cumulative time (in ticks) in various power states
system.switch_cpus.itb.walker.walks                 0                       # Table walker walks requested
system.switch_cpus.itb.walker.requestOrigin_Requested::Data            0                       # Table walker requests started/completed, data/inst
system.switch_cpus.itb.walker.requestOrigin_Requested::Inst            0                       # Table walker requests started/completed, data/inst
system.switch_cpus.itb.walker.requestOrigin_Requested::total            0                       # Table walker requests started/completed, data/inst
system.switch_cpus.itb.walker.requestOrigin_Completed::Data            0                       # Table walker requests started/completed, data/inst
system.switch_cpus.itb.walker.requestOrigin_Completed::Inst            0                       # Table walker requests started/completed, data/inst
system.switch_cpus.itb.walker.requestOrigin_Completed::total            0                       # Table walker requests started/completed, data/inst
system.switch_cpus.itb.walker.requestOrigin::total            0                       # Table walker requests started/completed, data/inst
system.switch_cpus.itb.walker.power_state.pwrStateResidencyTicks::UNDEFINED 5648906749500                       # Cumulative time (in ticks) in various power states
system.switch_cpus.lsq0.forwLoads            27019210                       # Number of loads that had data forwarded from stores
system.switch_cpus.lsq0.squashedLoads        86463879                       # Number of loads squashed
system.switch_cpus.lsq0.ignoredResponses       140424                       # Number of memory responses ignored because the instruction is squashed
system.switch_cpus.lsq0.memOrderViolation       214491                       # Number of memory ordering violations
system.switch_cpus.lsq0.squashedStores       31983578                       # Number of stores squashed
system.switch_cpus.lsq0.rescheduledLoads       897587                       # Number of loads that were rescheduled
system.switch_cpus.lsq0.blockedByCache           2861                       # Number of times an access to memory failed due to the cache being blocked
system.switch_cpus.power_state.pwrStateResidencyTicks::OFF 378586077000                       # Cumulative time (in ticks) in various power states
system.switch_cpus.rename.squashCycles       14135438                       # Number of cycles rename is squashing
system.switch_cpus.rename.idleCycles        254711527                       # Number of cycles rename is idle
system.switch_cpus.rename.blockCycles        33272306                       # Number of cycles rename is blocking
system.switch_cpus.rename.serializeStallCycles      2381041                       # count of cycles rename stalledfor serializing inst
system.switch_cpus.rename.runCycles         441826303                       # Number of cycles rename is running
system.switch_cpus.rename.unblockCycles       9896414                       # Number of cycles rename is unblocking
system.switch_cpus.rename.renamedInsts     2585849321                       # Number of instructions processed by rename
system.switch_cpus.rename.ROBFullEvents            17                       # Number of times rename has blocked due to ROB full
system.switch_cpus.rename.IQFullEvents         929161                       # Number of times rename has blocked due to IQ full
system.switch_cpus.rename.LQFullEvents        7569814                       # Number of times rename has blocked due to LQ full
system.switch_cpus.rename.SQFullEvents         673259                       # Number of times rename has blocked due to SQ full
system.switch_cpus.rename.renamedOperands   2693236410                       # Number of destination operands rename has renamed
system.switch_cpus.rename.lookups          4702859993                       # Number of register rename lookups that rename has made
system.switch_cpus.rename.intLookups       3025028564                       # Number of integer rename lookups
system.switch_cpus.rename.vecLookups        267182510                       # Number of vector rename lookups
system.switch_cpus.rename.vecPredLookups         8188                       # Number of vector predicate rename lookups
system.switch_cpus.rename.committedMaps    2201336904                       # Number of HB maps that are committed
system.switch_cpus.rename.undoneMaps        491899475                       # Number of HB maps that are undone due to squashing
system.switch_cpus.rename.serializing          155809                       # count of serializing insts renamed
system.switch_cpus.rename.tempSerializing            0                       # count of temporary serializing insts renamed
system.switch_cpus.rename.skidInsts          21137880                       # count of insts added to the skid buffer
system.switch_cpus.rob.reads               3046590839                       # The number of ROB reads
system.switch_cpus.rob.writes              4991565426                       # The number of ROB writes
system.switch_cpus.thread0.numInsts        2000000004                       # Number of Instructions committed
system.switch_cpus.thread0.numOps          2134811555                       # Number of Ops committed
system.switch_cpus.thread0.numMemRefs               0                       # Number of Memory References
system.tol2bus.trans_dist::ReadResp            549943                       # Transaction distribution
system.tol2bus.trans_dist::WritebackClean       105755                       # Transaction distribution
system.tol2bus.trans_dist::CleanEvict          679257                       # Transaction distribution
system.tol2bus.trans_dist::HardPFReq               49                       # Transaction distribution
system.tol2bus.trans_dist::UpgradeReq             128                       # Transaction distribution
system.tol2bus.trans_dist::UpgradeResp            128                       # Transaction distribution
system.tol2bus.trans_dist::ReadExReq               50                       # Transaction distribution
system.tol2bus.trans_dist::ReadExResp              50                       # Transaction distribution
system.tol2bus.trans_dist::ReadCleanReq        549940                       # Transaction distribution
system.tol2bus.trans_dist::ReadSharedReq            3                       # Transaction distribution
system.tol2bus.trans_dist::InvalidateReq            3                       # Transaction distribution
system.tol2bus.trans_dist::InvalidateResp            3                       # Transaction distribution
system.tol2bus.pkt_count_system.cpu.icache.mem_side_port::system.l2.cpu_side_port       522031                       # Packet count per connected requestor and responder (bytes)
system.tol2bus.pkt_count_system.cpu.dcache.mem_side_port::system.l2.cpu_side_port      1127469                       # Packet count per connected requestor and responder (bytes)
system.tol2bus.pkt_count::total               1649500                       # Packet count per connected requestor and responder (bytes)
system.tol2bus.pkt_size_system.cpu.icache.mem_side_port::system.l2.cpu_side_port     17915904                       # Cumulative packet size per connected requestor and responder (bytes)
system.tol2bus.pkt_size_system.cpu.dcache.mem_side_port::system.l2.cpu_side_port     24051968                       # Cumulative packet size per connected requestor and responder (bytes)
system.tol2bus.pkt_size::total               41967872                       # Cumulative packet size per connected requestor and responder (bytes)
system.tol2bus.snoops                          235809                       # Total snoops (count)
system.tol2bus.snoopTraffic                         0                       # Total snoop traffic (bytes)
system.tol2bus.snoop_fanout::samples           785933                       # Request fanout histogram
system.tol2bus.snoop_fanout::mean            0.299976                       # Request fanout histogram
system.tol2bus.snoop_fanout::stdev           0.458247                       # Request fanout histogram
system.tol2bus.snoop_fanout::underflows             0      0.00%      0.00% # Request fanout histogram
system.tol2bus.snoop_fanout::0                 550172     70.00%     70.00% # Request fanout histogram
system.tol2bus.snoop_fanout::1                 235761     30.00%    100.00% # Request fanout histogram
system.tol2bus.snoop_fanout::2                      0      0.00%    100.00% # Request fanout histogram
system.tol2bus.snoop_fanout::overflows              0      0.00%    100.00% # Request fanout histogram
system.tol2bus.snoop_fanout::min_value              0                       # Request fanout histogram
system.tol2bus.snoop_fanout::max_value              1                       # Request fanout histogram
system.tol2bus.snoop_fanout::total             785933                       # Request fanout histogram
system.tol2bus.power_state.pwrStateResidencyTicks::UNDEFINED 5648906749500                       # Cumulative time (in ticks) in various power states
system.tol2bus.reqLayer0.occupancy          898605195                       # Layer occupancy (ticks)
system.tol2bus.reqLayer0.utilization              0.2                       # Layer utilization (%)
system.tol2bus.respLayer0.occupancy         261267499                       # Layer occupancy (ticks)
system.tol2bus.respLayer0.utilization             0.1                       # Layer utilization (%)
system.tol2bus.respLayer1.occupancy         563781495                       # Layer occupancy (ticks)
system.tol2bus.respLayer1.utilization             0.1                       # Layer utilization (%)
system.voltage_domain.voltage                       1                       # Voltage in Volts

---------- End Simulation Statistics   ----------
