warn: Base 10 memory/cache size 16384MB will be cast to base 2 size 16384MiB.
warn: Base 10 memory/cache size 8MB will be cast to base 2 size 8MiB.
warn: Base 10 memory/cache size 32kB will be cast to base 2 size 32KiB.
warn: Base 10 memory/cache size 32kB will be cast to base 2 size 32KiB.
warn: Base 10 memory/cache size 8MB will be cast to base 2 size 8MiB.
Global frequency set at 1000000000000 ticks per second
src/base/statistics.hh:279: warn: One of the stats is a legacy stat. Legacy stat is a stat that does not belong to any statistics::Group. Legacy stat is deprecated.
      0: system.l2.tags.indexing_policy: Size of Tag-Store for Skewed-Assoc-Randomized - Sets:8192, with Assoc:28 
      0: system.l2.tags: Size of Tag-Store for Vway-Tags is 229376 lines, with assoc:28 and size 14680064 Bytes
      0: system.l2.tags: Actual Size of Cache seen from Vway-Tags is 131072 lines, with assoc:16 and size 8388608 Bytes
      0: system.l2.tags: Data Repl Policy: 0 (0-Random,1-Reuse).
src/base/remote_gdb.cc:418: warn: Sockets disabled, not accepting gdb connections
src/sim/process.cc:396: warn: Checkpoints for pipes, device drivers and sockets do not work.
gem5 Simulator System.  https://www.gem5.org
gem5 is copyrighted software; use the --copyright option for details.

gem5 version 24.1.0.2
gem5 compiled Apr 11 2025 20:05:30
gem5 started Apr 19 2025 17:50:26
gem5 executing on kabini, pid 1988589
command line: /home/maintainer/cs773_CompArch-Perf-Security/Final_Project/Workspace/gem5-mirage-v24.0/build/ARM/gem5.opt --outdir=mirage_mirage_250419-17_50_25560 /home/maintainer/cs773_CompArch-Perf-Security/Final_Project/Workspace/gem5-mirage-v24.0/configs/se.py --cmd ../../exe/lbm_s_base.spec-64 --option '2000 reference.dat 0 0 200_200_260_ldc.of' -i '' --checkpoint-dir=/home/maintainer/cs773_CompArch-Perf-Security/Final_Project/Workspace/SPEC17_workloads/checkpoints/lbm --checkpoint-restore=10000000000 --at-instruction --num-cpus=1 --mem-size=16384MB --mem-type=DDR4_2400_8x8 --cpu-type DerivO3CPU --caches --l2cache --l1d_size=32kB --l1i_size=32kB --l2_size=8MB --l1d_assoc=8 --l1i_assoc=8 --l2_assoc=16 --warmup-insts=10000000000 --maxinsts=10000000000 --mirage_mode=skew-vway-rand --l2_numSkews=2 --l2_TDR=1.75 --l2_EncrLat=3 --prog-interval=100Hz

info: Standard input is not a terminal, disabling listeners.
MEM SIZE  17179869185
Switch at curTick count:10000
src/sim/simulate.cc:199: info: Entering event queue @ 5552222092000.  Starting simulation...
src/sim/power_state.cc:105: warn: PowerState: Already in the requested power state, request ignored
src/arch/arm/isa.hh:214: warn: User mode does not have SPSR
src/arch/arm/isa.hh:214: warn: User mode does not have SPSR
Switched CPUS @ tick 5552222102000
switching cpus
**** REAL SIMULATION ****
src/sim/simulate.cc:199: info: Entering event queue @ 5552222102000.  Starting simulation...
5562222092000: Event_144: system.switch_cpus progress event, total committed:5403983, progress insts committed: 5403983, IPC: 0.270199
5572222092000: Event_144: system.switch_cpus progress event, total committed:10788997, progress insts committed: 5385014, IPC: 0.269251
5582222092000: Event_144: system.switch_cpus progress event, total committed:15905472, progress insts committed: 5116475, IPC: 0.255824
5592222092000: Event_144: system.switch_cpus progress event, total committed:21189585, progress insts committed: 5284113, IPC: 0.264206
5602222092000: Event_144: system.switch_cpus progress event, total committed:26464719, progress insts committed: 5275134, IPC: 0.263757
5612222092000: Event_144: system.switch_cpus progress event, total committed:31738639, progress insts committed: 5273920, IPC: 0.263696
5622222092000: Event_144: system.switch_cpus progress event, total committed:36988847, progress insts committed: 5250208, IPC: 00.26251
5632222092000: Event_144: system.switch_cpus progress event, total committed:42275440, progress insts committed: 5286593, IPC: 00.26433
5642222092000: Event_144: system.switch_cpus progress event, total committed:47444851, progress insts committed: 5169411, IPC: 0.258471
5652222092000: Event_144: system.switch_cpus progress event, total committed:52680771, progress insts committed: 5235920, IPC: 0.261796
5662222092000: Event_144: system.switch_cpus progress event, total committed:57733564, progress insts committed: 5052793, IPC: 00.25264
5672222092000: Event_144: system.switch_cpus progress event, total committed:62834115, progress insts committed: 5100551, IPC: 0.255028
5682222092000: Event_144: system.switch_cpus progress event, total committed:67948075, progress insts committed: 5113960, IPC: 0.255698
5692222092000: Event_144: system.switch_cpus progress event, total committed:73111737, progress insts committed: 5163662, IPC: 0.258183
5702222092000: Event_144: system.switch_cpus progress event, total committed:78092427, progress insts committed: 4980690, IPC: 0.249034
5712222092000: Event_144: system.switch_cpus progress event, total committed:83248089, progress insts committed: 5155662, IPC: 0.257783
5722222092000: Event_144: system.switch_cpus progress event, total committed:88441322, progress insts committed: 5193233, IPC: 0.259662
5732222092000: Event_144: system.switch_cpus progress event, total committed:93482260, progress insts committed: 5040938, IPC: 0.252047
5742222092000: Event_144: system.switch_cpus progress event, total committed:98612955, progress insts committed: 5130695, IPC: 0.256535
5752222092000: Event_144: system.switch_cpus progress event, total committed:103696023, progress insts committed: 5083068, IPC: 0.254153
5762222092000: Event_144: system.switch_cpus progress event, total committed:108842979, progress insts committed: 5146956, IPC: 0.257348
5772222092000: Event_144: system.switch_cpus progress event, total committed:114000657, progress insts committed: 5157678, IPC: 0.257884
5782222092000: Event_144: system.switch_cpus progress event, total committed:119170839, progress insts committed: 5170182, IPC: 0.258509
5792222092000: Event_144: system.switch_cpus progress event, total committed:124209896, progress insts committed: 5039057, IPC: 0.251953
5802222092000: Event_144: system.switch_cpus progress event, total committed:129481206, progress insts committed: 5271310, IPC: 0.263566
5812222092000: Event_144: system.switch_cpus progress event, total committed:134743607, progress insts committed: 5262401, IPC: 00.26312
5822222092000: Event_144: system.switch_cpus progress event, total committed:140078343, progress insts committed: 5334736, IPC: 0.266737
5832222092000: Event_144: system.switch_cpus progress event, total committed:145352781, progress insts committed: 5274438, IPC: 0.263722
5842222092000: Event_144: system.switch_cpus progress event, total committed:150758327, progress insts committed: 5405546, IPC: 0.270277
5852222092000: Event_144: system.switch_cpus progress event, total committed:156088219, progress insts committed: 5329892, IPC: 0.266495
5862222092000: Event_144: system.switch_cpus progress event, total committed:161631547, progress insts committed: 5543328, IPC: 0.277166
5872222092000: Event_144: system.switch_cpus progress event, total committed:167041347, progress insts committed: 5409800, IPC: 00.27049
5882222092000: Event_144: system.switch_cpus progress event, total committed:172377141, progress insts committed: 5335794, IPC: 00.26679
5892222092000: Event_144: system.switch_cpus progress event, total committed:177771040, progress insts committed: 5393899, IPC: 0.269695
5902222092000: Event_144: system.switch_cpus progress event, total committed:183250641, progress insts committed: 5479601, IPC: 00.27398
5912222092000: Event_144: system.switch_cpus progress event, total committed:188475485, progress insts committed: 5224844, IPC: 0.261242
5922222092000: Event_144: system.switch_cpus progress event, total committed:193705983, progress insts committed: 5230498, IPC: 0.261525
5932222092000: Event_144: system.switch_cpus progress event, total committed:199037888, progress insts committed: 5331905, IPC: 0.266595
5942222092000: Event_144: system.switch_cpus progress event, total committed:204380215, progress insts committed: 5342327, IPC: 0.267116
5952222092000: Event_144: system.switch_cpus progress event, total committed:209505413, progress insts committed: 5125198, IPC: 00.25626
5962222092000: Event_144: system.switch_cpus progress event, total committed:214778113, progress insts committed: 5272700, IPC: 0.263635
5972222092000: Event_144: system.switch_cpus progress event, total committed:219980444, progress insts committed: 5202331, IPC: 0.260117
5982222092000: Event_144: system.switch_cpus progress event, total committed:225207971, progress insts committed: 5227527, IPC: 0.261376
5992222092000: Event_144: system.switch_cpus progress event, total committed:230480665, progress insts committed: 5272694, IPC: 0.263635
6002222092000: Event_144: system.switch_cpus progress event, total committed:235520850, progress insts committed: 5040185, IPC: 0.252009
6012222092000: Event_144: system.switch_cpus progress event, total committed:240668913, progress insts committed: 5148063, IPC: 0.257403
6022222092000: Event_144: system.switch_cpus progress event, total committed:245735477, progress insts committed: 5066564, IPC: 0.253328
6032222092000: Event_144: system.switch_cpus progress event, total committed:251035871, progress insts committed: 5300394, IPC: 00.26502
6042222092000: Event_144: system.switch_cpus progress event, total committed:256068018, progress insts committed: 5032147, IPC: 0.251607
6052222092000: Event_144: system.switch_cpus progress event, total committed:261209619, progress insts committed: 5141601, IPC: 00.25708
6062222092000: Event_144: system.switch_cpus progress event, total committed:266303069, progress insts committed: 5093450, IPC: 0.254673
6072222092000: Event_144: system.switch_cpus progress event, total committed:271576646, progress insts committed: 5273577, IPC: 0.263679
6082222092000: Event_144: system.switch_cpus progress event, total committed:276619512, progress insts committed: 5042866, IPC: 0.252143
6092222092000: Event_144: system.switch_cpus progress event, total committed:281822707, progress insts committed: 5203195, IPC: 00.26016
6102222092000: Event_144: system.switch_cpus progress event, total committed:287067721, progress insts committed: 5245014, IPC: 0.262251
6112222092000: Event_144: system.switch_cpus progress event, total committed:292408471, progress insts committed: 5340750, IPC: 0.267037
6122222092000: Event_144: system.switch_cpus progress event, total committed:297604383, progress insts committed: 5195912, IPC: 0.259796
6132222092000: Event_144: system.switch_cpus progress event, total committed:303049703, progress insts committed: 5445320, IPC: 0.272266
6142222092000: Event_144: system.switch_cpus progress event, total committed:308582935, progress insts committed: 5533232, IPC: 0.276662
6152222092000: Event_144: system.switch_cpus progress event, total committed:313989577, progress insts committed: 5406642, IPC: 0.270332
6162222092000: Event_144: system.switch_cpus progress event, total committed:319288829, progress insts committed: 5299252, IPC: 0.264963
6172222092000: Event_144: system.switch_cpus progress event, total committed:324769622, progress insts committed: 5480793, IPC: 00.27404
6182222092000: Event_144: system.switch_cpus progress event, total committed:330267673, progress insts committed: 5498051, IPC: 0.274903
6192222092000: Event_144: system.switch_cpus progress event, total committed:335558257, progress insts committed: 5290584, IPC: 0.264529
6202222092000: Event_144: system.switch_cpus progress event, total committed:341160850, progress insts committed: 5602593, IPC: 00.28013
6212222092000: Event_144: system.switch_cpus progress event, total committed:346534938, progress insts committed: 5374088, IPC: 0.268704
6222222092000: Event_144: system.switch_cpus progress event, total committed:351905145, progress insts committed: 5370207, IPC: 00.26851
6232222092000: Event_144: system.switch_cpus progress event, total committed:357227331, progress insts committed: 5322186, IPC: 0.266109
6242222092000: Event_144: system.switch_cpus progress event, total committed:362697559, progress insts committed: 5470228, IPC: 0.273511
6252222092000: Event_144: system.switch_cpus progress event, total committed:367842105, progress insts committed: 5144546, IPC: 0.257227
6262222092000: Event_144: system.switch_cpus progress event, total committed:373185615, progress insts committed: 5343510, IPC: 0.267176
6272222092000: Event_144: system.switch_cpus progress event, total committed:378372014, progress insts committed: 5186399, IPC: 00.25932
6282222092000: Event_144: system.switch_cpus progress event, total committed:383677070, progress insts committed: 5305056, IPC: 0.265253
6292222092000: Event_144: system.switch_cpus progress event, total committed:388709545, progress insts committed: 5032475, IPC: 0.251624
6302222092000: Event_144: system.switch_cpus progress event, total committed:393954753, progress insts committed: 5245208, IPC: 00.26226
6312222092000: Event_144: system.switch_cpus progress event, total committed:399158773, progress insts committed: 5204020, IPC: 0.260201
6322222092000: Event_144: system.switch_cpus progress event, total committed:404466623, progress insts committed: 5307850, IPC: 0.265392
6332222092000: Event_144: system.switch_cpus progress event, total committed:409431316, progress insts committed: 4964693, IPC: 0.248235
6342222092000: Event_144: system.switch_cpus progress event, total committed:414755717, progress insts committed: 5324401, IPC: 00.26622
6352222092000: Event_144: system.switch_cpus progress event, total committed:420090337, progress insts committed: 5334620, IPC: 0.266731
6362222092000: Event_144: system.switch_cpus progress event, total committed:425430444, progress insts committed: 5340107, IPC: 0.267005
6372222092000: Event_144: system.switch_cpus progress event, total committed:430682329, progress insts committed: 5251885, IPC: 0.262594
6382222092000: Event_144: system.switch_cpus progress event, total committed:436033412, progress insts committed: 5351083, IPC: 0.267554
6392222092000: Event_144: system.switch_cpus progress event, total committed:441408306, progress insts committed: 5374894, IPC: 0.268745
6402222092000: Event_144: system.switch_cpus progress event, total committed:446755652, progress insts committed: 5347346, IPC: 0.267367
6412222092000: Event_144: system.switch_cpus progress event, total committed:451937989, progress insts committed: 5182337, IPC: 0.259117
6422222092000: Event_144: system.switch_cpus progress event, total committed:457234935, progress insts committed: 5296946, IPC: 0.264847
6432222092000: Event_144: system.switch_cpus progress event, total committed:462504895, progress insts committed: 5269960, IPC: 0.263498
6442222092000: Event_144: system.switch_cpus progress event, total committed:467686667, progress insts committed: 5181772, IPC: 0.259089
6452222092000: Event_144: system.switch_cpus progress event, total committed:473037117, progress insts committed: 5350450, IPC: 0.267522
6462222092000: Event_144: system.switch_cpus progress event, total committed:478115989, progress insts committed: 5078872, IPC: 0.253944
6472222092000: Event_144: system.switch_cpus progress event, total committed:483411558, progress insts committed: 5295569, IPC: 0.264778
6482222092000: Event_144: system.switch_cpus progress event, total committed:488703343, progress insts committed: 5291785, IPC: 0.264589
6492222092000: Event_144: system.switch_cpus progress event, total committed:493985173, progress insts committed: 5281830, IPC: 0.264091
6502222092000: Event_144: system.switch_cpus progress event, total committed:499180417, progress insts committed: 5195244, IPC: 0.259762
6512222092000: Event_144: system.switch_cpus progress event, total committed:504577953, progress insts committed: 5397536, IPC: 0.269877
6522222092000: Event_144: system.switch_cpus progress event, total committed:509887570, progress insts committed: 5309617, IPC: 0.265481
6532222092000: Event_144: system.switch_cpus progress event, total committed:515127499, progress insts committed: 5239929, IPC: 0.261996
6542222092000: Event_144: system.switch_cpus progress event, total committed:520263439, progress insts committed: 5135940, IPC: 0.256797
6552222092000: Event_144: system.switch_cpus progress event, total committed:525591818, progress insts committed: 5328379, IPC: 0.266419
6562222092000: Event_144: system.switch_cpus progress event, total committed:530962833, progress insts committed: 5371015, IPC: 0.268551
6572222092000: Event_144: system.switch_cpus progress event, total committed:536155106, progress insts committed: 5192273, IPC: 0.259614
6582222092000: Event_144: system.switch_cpus progress event, total committed:541282873, progress insts committed: 5127767, IPC: 0.256388
6592222092000: Event_144: system.switch_cpus progress event, total committed:546513089, progress insts committed: 5230216, IPC: 0.261511
6602222092000: Event_144: system.switch_cpus progress event, total committed:551671387, progress insts committed: 5158298, IPC: 0.257915
6612222092000: Event_144: system.switch_cpus progress event, total committed:556875356, progress insts committed: 5203969, IPC: 0.260198
6622222092000: Event_144: system.switch_cpus progress event, total committed:561922333, progress insts committed: 5046977, IPC: 0.252349
6632222092000: Event_144: system.switch_cpus progress event, total committed:567197719, progress insts committed: 5275386, IPC: 0.263769
6642222092000: Event_144: system.switch_cpus progress event, total committed:572364656, progress insts committed: 5166937, IPC: 0.258347
6652222092000: Event_144: system.switch_cpus progress event, total committed:577617956, progress insts committed: 5253300, IPC: 0.262665
6662222092000: Event_144: system.switch_cpus progress event, total committed:582854698, progress insts committed: 5236742, IPC: 0.261837
6672222092000: Event_144: system.switch_cpus progress event, total committed:587948830, progress insts committed: 5094132, IPC: 0.254707
6682222092000: Event_144: system.switch_cpus progress event, total committed:593057006, progress insts committed: 5108176, IPC: 0.255409
6692222092000: Event_144: system.switch_cpus progress event, total committed:598176673, progress insts committed: 5119667, IPC: 0.255983
6702222092000: Event_144: system.switch_cpus progress event, total committed:603403254, progress insts committed: 5226581, IPC: 0.261329
6712222092000: Event_144: system.switch_cpus progress event, total committed:608429165, progress insts committed: 5025911, IPC: 0.251296
6722222092000: Event_144: system.switch_cpus progress event, total committed:613516486, progress insts committed: 5087321, IPC: 0.254366
6732222092000: Event_144: system.switch_cpus progress event, total committed:618806083, progress insts committed: 5289597, IPC: 00.26448
6742222092000: Event_144: system.switch_cpus progress event, total committed:624122280, progress insts committed: 5316197, IPC: 00.26581
6752222092000: Event_144: system.switch_cpus progress event, total committed:629381339, progress insts committed: 5259059, IPC: 0.262953
6762222092000: Event_144: system.switch_cpus progress event, total committed:634578061, progress insts committed: 5196722, IPC: 0.259836
6772222092000: Event_144: system.switch_cpus progress event, total committed:639940201, progress insts committed: 5362140, IPC: 0.268107
6782222092000: Event_144: system.switch_cpus progress event, total committed:645291923, progress insts committed: 5351722, IPC: 0.267586
6792222092000: Event_144: system.switch_cpus progress event, total committed:650375995, progress insts committed: 5084072, IPC: 0.254204
6802222092000: Event_144: system.switch_cpus progress event, total committed:655737799, progress insts committed: 5361804, IPC: 00.26809
6812222092000: Event_144: system.switch_cpus progress event, total committed:661041176, progress insts committed: 5303377, IPC: 0.265169
6822222092000: Event_144: system.switch_cpus progress event, total committed:666344951, progress insts committed: 5303775, IPC: 0.265189
6832222092000: Event_144: system.switch_cpus progress event, total committed:671453236, progress insts committed: 5108285, IPC: 0.255414
6842222092000: Event_144: system.switch_cpus progress event, total committed:676728480, progress insts committed: 5275244, IPC: 0.263762
6852222092000: Event_144: system.switch_cpus progress event, total committed:681940236, progress insts committed: 5211756, IPC: 0.260588
6862222092000: Event_144: system.switch_cpus progress event, total committed:687305383, progress insts committed: 5365147, IPC: 0.268257
6872222092000: Event_144: system.switch_cpus progress event, total committed:692645377, progress insts committed: 5339994, IPC: 0000.267
6882222092000: Event_144: system.switch_cpus progress event, total committed:697867074, progress insts committed: 5221697, IPC: 0.261085
6892222092000: Event_144: system.switch_cpus progress event, total committed:703198871, progress insts committed: 5331797, IPC: 00.26659
6902222092000: Event_144: system.switch_cpus progress event, total committed:708704088, progress insts committed: 5505217, IPC: 0.275261
6912222092000: Event_144: system.switch_cpus progress event, total committed:714143140, progress insts committed: 5439052, IPC: 0.271953
6922222092000: Event_144: system.switch_cpus progress event, total committed:719377835, progress insts committed: 5234695, IPC: 0.261735
6932222092000: Event_144: system.switch_cpus progress event, total committed:724694551, progress insts committed: 5316716, IPC: 0.265836
6942222092000: Event_144: system.switch_cpus progress event, total committed:730120073, progress insts committed: 5425522, IPC: 0.271276
6952222092000: Event_144: system.switch_cpus progress event, total committed:735529590, progress insts committed: 5409517, IPC: 0.270476
6962222092000: Event_144: system.switch_cpus progress event, total committed:740819489, progress insts committed: 5289899, IPC: 0.264495
6972222092000: Event_144: system.switch_cpus progress event, total committed:746099256, progress insts committed: 5279767, IPC: 0.263988
6982222092000: Event_144: system.switch_cpus progress event, total committed:751553702, progress insts committed: 5454446, IPC: 0.272722
6992222092000: Event_144: system.switch_cpus progress event, total committed:756975304, progress insts committed: 5421602, IPC: 00.27108
7002222092000: Event_144: system.switch_cpus progress event, total committed:762150718, progress insts committed: 5175414, IPC: 0.258771
7012222092000: Event_144: system.switch_cpus progress event, total committed:767478293, progress insts committed: 5327575, IPC: 0.266379
7022222092000: Event_144: system.switch_cpus progress event, total committed:772842198, progress insts committed: 5363905, IPC: 0.268195
7032222092000: Event_144: system.switch_cpus progress event, total committed:778170471, progress insts committed: 5328273, IPC: 0.266414
7042222092000: Event_144: system.switch_cpus progress event, total committed:783247549, progress insts committed: 5077078, IPC: 0.253854
7052222092000: Event_144: system.switch_cpus progress event, total committed:788574210, progress insts committed: 5326661, IPC: 0.266333
7062222092000: Event_144: system.switch_cpus progress event, total committed:794067107, progress insts committed: 5492897, IPC: 0.274645
7072222092000: Event_144: system.switch_cpus progress event, total committed:799616762, progress insts committed: 5549655, IPC: 0.277483
7082222092000: Event_144: system.switch_cpus progress event, total committed:805010458, progress insts committed: 5393696, IPC: 0.269685
7092222092000: Event_144: system.switch_cpus progress event, total committed:810833680, progress insts committed: 5823222, IPC: 0.291161
7102222092000: Event_144: system.switch_cpus progress event, total committed:816697265, progress insts committed: 5863585, IPC: 0.293179
7112222092000: Event_144: system.switch_cpus progress event, total committed:822791628, progress insts committed: 6094363, IPC: 0.304718
7122222092000: Event_144: system.switch_cpus progress event, total committed:828855789, progress insts committed: 6064161, IPC: 0.303208
7132222092000: Event_144: system.switch_cpus progress event, total committed:835488995, progress insts committed: 6633206, IPC: 00.33166
7142222092000: Event_144: system.switch_cpus progress event, total committed:842162265, progress insts committed: 6673270, IPC: 0.333664
7152222092000: Event_144: system.switch_cpus progress event, total committed:849133297, progress insts committed: 6971032, IPC: 0.348552
7162222092000: Event_144: system.switch_cpus progress event, total committed:856315617, progress insts committed: 7182320, IPC: 0.359116
7172222092000: Event_144: system.switch_cpus progress event, total committed:863893953, progress insts committed: 7578336, IPC: 0.378917
7182222092000: Event_144: system.switch_cpus progress event, total committed:871738437, progress insts committed: 7844484, IPC: 0.392224
7192222092000: Event_144: system.switch_cpus progress event, total committed:879704703, progress insts committed: 7966266, IPC: 0.398313
7202222092000: Event_144: system.switch_cpus progress event, total committed:888007181, progress insts committed: 8302478, IPC: 0.415124
7212222092000: Event_144: system.switch_cpus progress event, total committed:896557498, progress insts committed: 8550317, IPC: 0.427516
7222222092000: Event_144: system.switch_cpus progress event, total committed:905403227, progress insts committed: 8845729, IPC: 0.442286
7232222092000: Event_144: system.switch_cpus progress event, total committed:914363669, progress insts committed: 8960442, IPC: 0.448022
7242222092000: Event_144: system.switch_cpus progress event, total committed:923598624, progress insts committed: 9234955, IPC: 0.461748
7252222092000: Event_144: system.switch_cpus progress event, total committed:933120747, progress insts committed: 9522123, IPC: 0.476106
7262222092000: Event_144: system.switch_cpus progress event, total committed:942675875, progress insts committed: 9555128, IPC: 0.477756
7272222092000: Event_144: system.switch_cpus progress event, total committed:952434762, progress insts committed: 9758887, IPC: 0.487944
7282222092000: Event_144: system.switch_cpus progress event, total committed:962198202, progress insts committed: 9763440, IPC: 0.488172
7292222092000: Event_144: system.switch_cpus progress event, total committed:972140872, progress insts committed: 9942670, IPC: 0.497134
7302222092000: Event_144: system.switch_cpus progress event, total committed:982123687, progress insts committed: 9982815, IPC: 0.499141
7312222092000: Event_144: system.switch_cpus progress event, total committed:992080329, progress insts committed: 9956642, IPC: 0.497832
7322222092000: Event_144: system.switch_cpus progress event, total committed:1002201802, progress insts committed: 10121473, IPC: 0.506074
7332222092000: Event_144: system.switch_cpus progress event, total committed:1012220888, progress insts committed: 10019086, IPC: 0.500954
7342222092000: Event_144: system.switch_cpus progress event, total committed:1022436024, progress insts committed: 10215136, IPC: 0.510757
7352222092000: Event_144: system.switch_cpus progress event, total committed:1032572480, progress insts committed: 10136456, IPC: 0.506823
7362222092000: Event_144: system.switch_cpus progress event, total committed:1042763583, progress insts committed: 10191103, IPC: 0.509555
7372222092000: Event_144: system.switch_cpus progress event, total committed:1053062984, progress insts committed: 10299401, IPC: 00.51497
7382222092000: Event_144: system.switch_cpus progress event, total committed:1063275325, progress insts committed: 10212341, IPC: 0.510617
7392222092000: Event_144: system.switch_cpus progress event, total committed:1073490050, progress insts committed: 10214725, IPC: 0.510736
7402222092000: Event_144: system.switch_cpus progress event, total committed:1083708173, progress insts committed: 10218123, IPC: 0.510906
7412222092000: Event_144: system.switch_cpus progress event, total committed:1094025852, progress insts committed: 10317679, IPC: 0.515884
7422222092000: Event_144: system.switch_cpus progress event, total committed:1104247829, progress insts committed: 10221977, IPC: 0.511099
7432222092000: Event_144: system.switch_cpus progress event, total committed:1114454586, progress insts committed: 10206757, IPC: 0.510338
7442222092000: Event_144: system.switch_cpus progress event, total committed:1124771090, progress insts committed: 10316504, IPC: 0.515825
7452222092000: Event_144: system.switch_cpus progress event, total committed:1134987501, progress insts committed: 10216411, IPC: 0.510821
7462222092000: Event_144: system.switch_cpus progress event, total committed:1145196165, progress insts committed: 10208664, IPC: 0.510433
7472222092000: Event_144: system.switch_cpus progress event, total committed:1155522584, progress insts committed: 10326419, IPC: 0.516321
7482222092000: Event_144: system.switch_cpus progress event, total committed:1165735758, progress insts committed: 10213174, IPC: 0.510659
7492222092000: Event_144: system.switch_cpus progress event, total committed:1175213471, progress insts committed: 9477713, IPC: 0.473886
7502222092000: Event_144: system.switch_cpus progress event, total committed:1183065649, progress insts committed: 7852178, IPC: 0.392609
7512222092000: Event_144: system.switch_cpus progress event, total committed:1184613373, progress insts committed: 1547724, IPC: 0.0773862
7522222092000: Event_144: system.switch_cpus progress event, total committed:1186147887, progress insts committed: 1534514, IPC: 0.0767257
7532222092000: Event_144: system.switch_cpus progress event, total committed:1192464953, progress insts committed: 6317066, IPC: 0.315853
7542222092000: Event_144: system.switch_cpus progress event, total committed:1201668063, progress insts committed: 9203110, IPC: 0.460155
7552222092000: Event_144: system.switch_cpus progress event, total committed:1212044658, progress insts committed: 10376595, IPC: 00.51883
7562222092000: Event_144: system.switch_cpus progress event, total committed:1222310283, progress insts committed: 10265625, IPC: 0.513281
7572222092000: Event_144: system.switch_cpus progress event, total committed:1232576348, progress insts committed: 10266065, IPC: 0.513303
7582222092000: Event_144: system.switch_cpus progress event, total committed:1242839162, progress insts committed: 10262814, IPC: 0.513141
7592222092000: Event_144: system.switch_cpus progress event, total committed:1253211955, progress insts committed: 10372793, IPC: 00.51864
7602222092000: Event_144: system.switch_cpus progress event, total committed:1263480278, progress insts committed: 10268323, IPC: 0.513416
7612222092000: Event_144: system.switch_cpus progress event, total committed:1273743679, progress insts committed: 10263401, IPC: 00.51317
7622222092000: Event_144: system.switch_cpus progress event, total committed:1284120240, progress insts committed: 10376561, IPC: 0.518828
7632222092000: Event_144: system.switch_cpus progress event, total committed:1294383685, progress insts committed: 10263445, IPC: 0.513172
7642222092000: Event_144: system.switch_cpus progress event, total committed:1304646098, progress insts committed: 10262413, IPC: 0.513121
7652222092000: Event_144: system.switch_cpus progress event, total committed:1315026716, progress insts committed: 10380618, IPC: 0.519031
7662222092000: Event_144: system.switch_cpus progress event, total committed:1324474268, progress insts committed: 9447552, IPC: 0.472378
7672222092000: Event_144: system.switch_cpus progress event, total committed:1333094333, progress insts committed: 8620065, IPC: 0.431003
7682222092000: Event_144: system.switch_cpus progress event, total committed:1340925806, progress insts committed: 7831473, IPC: 0.391574
7692222092000: Event_144: system.switch_cpus progress event, total committed:1347664905, progress insts committed: 6739099, IPC: 0.336955
7702222092000: Event_144: system.switch_cpus progress event, total committed:1353582570, progress insts committed: 5917665, IPC: 0.295883
7712222092000: Event_144: system.switch_cpus progress event, total committed:1358989920, progress insts committed: 5407350, IPC: 0.270367
7722222092000: Event_144: system.switch_cpus progress event, total committed:1363944139, progress insts committed: 4954219, IPC: 0.247711
7732222092000: Event_144: system.switch_cpus progress event, total committed:1368177629, progress insts committed: 4233490, IPC: 0.211674
7742222092000: Event_144: system.switch_cpus progress event, total committed:1372419390, progress insts committed: 4241761, IPC: 0.212088
7752222092000: Event_144: system.switch_cpus progress event, total committed:1376571747, progress insts committed: 4152357, IPC: 0.207618
7762222092000: Event_144: system.switch_cpus progress event, total committed:1380750467, progress insts committed: 4178720, IPC: 0.208936
7772222092000: Event_144: system.switch_cpus progress event, total committed:1385078349, progress insts committed: 4327882, IPC: 0.216394
7782222092000: Event_144: system.switch_cpus progress event, total committed:1389203044, progress insts committed: 4124695, IPC: 0.206235
7792222092000: Event_144: system.switch_cpus progress event, total committed:1393902591, progress insts committed: 4699547, IPC: 0.234977
7802222092000: Event_144: system.switch_cpus progress event, total committed:1398543281, progress insts committed: 4640690, IPC: 0.232035
7812222092000: Event_144: system.switch_cpus progress event, total committed:1403378837, progress insts committed: 4835556, IPC: 0.241778
7822222092000: Event_144: system.switch_cpus progress event, total committed:1408402565, progress insts committed: 5023728, IPC: 0.251186
7832222092000: Event_144: system.switch_cpus progress event, total committed:1413618035, progress insts committed: 5215470, IPC: 0.260773
7842222092000: Event_144: system.switch_cpus progress event, total committed:1418902384, progress insts committed: 5284349, IPC: 0.264217
7852222092000: Event_144: system.switch_cpus progress event, total committed:1424153273, progress insts committed: 5250889, IPC: 0.262544
7862222092000: Event_144: system.switch_cpus progress event, total committed:1429627675, progress insts committed: 5474402, IPC: 00.27372
7872222092000: Event_144: system.switch_cpus progress event, total committed:1434942556, progress insts committed: 5314881, IPC: 0.265744
7882222092000: Event_144: system.switch_cpus progress event, total committed:1440375627, progress insts committed: 5433071, IPC: 0.271654
7892222092000: Event_144: system.switch_cpus progress event, total committed:1445877482, progress insts committed: 5501855, IPC: 0.275093
7902222092000: Event_144: system.switch_cpus progress event, total committed:1451462630, progress insts committed: 5585148, IPC: 0.279257
7912222092000: Event_144: system.switch_cpus progress event, total committed:1456940671, progress insts committed: 5478041, IPC: 0.273902
7922222092000: Event_144: system.switch_cpus progress event, total committed:1462386058, progress insts committed: 5445387, IPC: 0.272269
7932222092000: Event_144: system.switch_cpus progress event, total committed:1467892516, progress insts committed: 5506458, IPC: 0.275323
7942222092000: Event_144: system.switch_cpus progress event, total committed:1473265572, progress insts committed: 5373056, IPC: 0.268653
7952222092000: Event_144: system.switch_cpus progress event, total committed:1478500277, progress insts committed: 5234705, IPC: 0.261735
7962222092000: Event_144: system.switch_cpus progress event, total committed:1483761735, progress insts committed: 5261458, IPC: 0.263073
7972222092000: Event_144: system.switch_cpus progress event, total committed:1488862401, progress insts committed: 5100666, IPC: 0.255033
7982222092000: Event_144: system.switch_cpus progress event, total committed:1494096656, progress insts committed: 5234255, IPC: 0.261713
7992222092000: Event_144: system.switch_cpus progress event, total committed:1499262811, progress insts committed: 5166155, IPC: 0.258308
8002222092000: Event_144: system.switch_cpus progress event, total committed:1504588282, progress insts committed: 5325471, IPC: 0.266274
8012222092000: Event_144: system.switch_cpus progress event, total committed:1509832887, progress insts committed: 5244605, IPC: 00.26223
8022222092000: Event_144: system.switch_cpus progress event, total committed:1515159349, progress insts committed: 5326462, IPC: 0.266323
8032222092000: Event_144: system.switch_cpus progress event, total committed:1520391871, progress insts committed: 5232522, IPC: 0.261626
8042222092000: Event_144: system.switch_cpus progress event, total committed:1525700305, progress insts committed: 5308434, IPC: 0.265422
8052222092000: Event_144: system.switch_cpus progress event, total committed:1531008829, progress insts committed: 5308524, IPC: 0.265426
8062222092000: Event_144: system.switch_cpus progress event, total committed:1536342104, progress insts committed: 5333275, IPC: 0.266664
8072222092000: Event_144: system.switch_cpus progress event, total committed:1541834220, progress insts committed: 5492116, IPC: 0.274606
8082222092000: Event_144: system.switch_cpus progress event, total committed:1547059730, progress insts committed: 5225510, IPC: 0.261275
8092222092000: Event_144: system.switch_cpus progress event, total committed:1552389853, progress insts committed: 5330123, IPC: 0.266506
8102222092000: Event_144: system.switch_cpus progress event, total committed:1557750644, progress insts committed: 5360791, IPC: 00.26804
8112222092000: Event_144: system.switch_cpus progress event, total committed:1563028547, progress insts committed: 5277903, IPC: 0.263895
8122222092000: Event_144: system.switch_cpus progress event, total committed:1568254215, progress insts committed: 5225668, IPC: 0.261283
8132222092000: Event_144: system.switch_cpus progress event, total committed:1573509898, progress insts committed: 5255683, IPC: 0.262784
8142222092000: Event_144: system.switch_cpus progress event, total committed:1578778867, progress insts committed: 5268969, IPC: 0.263448
8152222092000: Event_144: system.switch_cpus progress event, total committed:1584083133, progress insts committed: 5304266, IPC: 0.265213
8162222092000: Event_144: system.switch_cpus progress event, total committed:1589253325, progress insts committed: 5170192, IPC: 00.25851
8172222092000: Event_144: system.switch_cpus progress event, total committed:1594569804, progress insts committed: 5316479, IPC: 0.265824
8182222092000: Event_144: system.switch_cpus progress event, total committed:1599996381, progress insts committed: 5426577, IPC: 0.271329
8192222092000: Event_144: system.switch_cpus progress event, total committed:1605335018, progress insts committed: 5338637, IPC: 0.266932
8202222092000: Event_144: system.switch_cpus progress event, total committed:1610550754, progress insts committed: 5215736, IPC: 0.260787
8212222092000: Event_144: system.switch_cpus progress event, total committed:1615834617, progress insts committed: 5283863, IPC: 0.264193
8222222092000: Event_144: system.switch_cpus progress event, total committed:1621214118, progress insts committed: 5379501, IPC: 0.268975
8232222092000: Event_144: system.switch_cpus progress event, total committed:1626488576, progress insts committed: 5274458, IPC: 0.263723
8242222092000: Event_144: system.switch_cpus progress event, total committed:1631895428, progress insts committed: 5406852, IPC: 0.270343
8252222092000: Event_144: system.switch_cpus progress event, total committed:1637051733, progress insts committed: 5156305, IPC: 0.257815
8262222092000: Event_144: system.switch_cpus progress event, total committed:1642358810, progress insts committed: 5307077, IPC: 0.265354
8272222092000: Event_144: system.switch_cpus progress event, total committed:1647632518, progress insts committed: 5273708, IPC: 0.263685
8282222092000: Event_144: system.switch_cpus progress event, total committed:1653025633, progress insts committed: 5393115, IPC: 0.269656
8292222092000: Event_144: system.switch_cpus progress event, total committed:1658268963, progress insts committed: 5243330, IPC: 0.262167
8302222092000: Event_144: system.switch_cpus progress event, total committed:1663449149, progress insts committed: 5180186, IPC: 0.259009
8312222092000: Event_144: system.switch_cpus progress event, total committed:1668633189, progress insts committed: 5184040, IPC: 0.259202
8322222092000: Event_144: system.switch_cpus progress event, total committed:1674012641, progress insts committed: 5379452, IPC: 0.268973
8332222092000: Event_144: system.switch_cpus progress event, total committed:1679156219, progress insts committed: 5143578, IPC: 0.257179
8342222092000: Event_144: system.switch_cpus progress event, total committed:1684380682, progress insts committed: 5224463, IPC: 0.261223
8352222092000: Event_144: system.switch_cpus progress event, total committed:1689667127, progress insts committed: 5286445, IPC: 0.264322
8362222092000: Event_144: system.switch_cpus progress event, total committed:1694938184, progress insts committed: 5271057, IPC: 0.263553
8372222092000: Event_144: system.switch_cpus progress event, total committed:1700233854, progress insts committed: 5295670, IPC: 0.264784
8382222092000: Event_144: system.switch_cpus progress event, total committed:1705303789, progress insts committed: 5069935, IPC: 0.253497
8392222092000: Event_144: system.switch_cpus progress event, total committed:1710629306, progress insts committed: 5325517, IPC: 0.266276
8402222092000: Event_144: system.switch_cpus progress event, total committed:1716067642, progress insts committed: 5438336, IPC: 0.271917
8412222092000: Event_144: system.switch_cpus progress event, total committed:1721373102, progress insts committed: 5305460, IPC: 0.265273
8422222092000: Event_144: system.switch_cpus progress event, total committed:1726551571, progress insts committed: 5178469, IPC: 0.258923
8432222092000: Event_144: system.switch_cpus progress event, total committed:1731935045, progress insts committed: 5383474, IPC: 0.269174
8442222092000: Event_144: system.switch_cpus progress event, total committed:1737309509, progress insts committed: 5374464, IPC: 0.268723
8452222092000: Event_144: system.switch_cpus progress event, total committed:1742715075, progress insts committed: 5405566, IPC: 0.270278
8462222092000: Event_144: system.switch_cpus progress event, total committed:1748001106, progress insts committed: 5286031, IPC: 0.264302
8472222092000: Event_144: system.switch_cpus progress event, total committed:1753348338, progress insts committed: 5347232, IPC: 0.267362
8482222092000: Event_144: system.switch_cpus progress event, total committed:1758642004, progress insts committed: 5293666, IPC: 0.264683
8492222092000: Event_144: system.switch_cpus progress event, total committed:1763941369, progress insts committed: 5299365, IPC: 0.264968
8502222092000: Event_144: system.switch_cpus progress event, total committed:1769085477, progress insts committed: 5144108, IPC: 0.257205
8512222092000: Event_144: system.switch_cpus progress event, total committed:1774188409, progress insts committed: 5102932, IPC: 0.255147
8522222092000: Event_144: system.switch_cpus progress event, total committed:1779292014, progress insts committed: 5103605, IPC: 00.25518
8532222092000: Event_144: system.switch_cpus progress event, total committed:1784341233, progress insts committed: 5049219, IPC: 0.252461
8542222092000: Event_144: system.switch_cpus progress event, total committed:1789492210, progress insts committed: 5150977, IPC: 0.257549
8552222092000: Event_144: system.switch_cpus progress event, total committed:1794485348, progress insts committed: 4993138, IPC: 0.249657
8562222092000: Event_144: system.switch_cpus progress event, total committed:1799587177, progress insts committed: 5101829, IPC: 0.255091
8572222092000: Event_144: system.switch_cpus progress event, total committed:1804745314, progress insts committed: 5158137, IPC: 0.257907
8582222092000: Event_144: system.switch_cpus progress event, total committed:1809996725, progress insts committed: 5251411, IPC: 0.262571
8592222092000: Event_144: system.switch_cpus progress event, total committed:1815215309, progress insts committed: 5218584, IPC: 0.260929
8602222092000: Event_144: system.switch_cpus progress event, total committed:1820482755, progress insts committed: 5267446, IPC: 0.263372
8612222092000: Event_144: system.switch_cpus progress event, total committed:1825820074, progress insts committed: 5337319, IPC: 0.266866
8622222092000: Event_144: system.switch_cpus progress event, total committed:1831185046, progress insts committed: 5364972, IPC: 0.268249
8632222092000: Event_144: system.switch_cpus progress event, total committed:1836497778, progress insts committed: 5312732, IPC: 0.265637
8642222092000: Event_144: system.switch_cpus progress event, total committed:1841854417, progress insts committed: 5356639, IPC: 0.267832
8652222092000: Event_144: system.switch_cpus progress event, total committed:1847423606, progress insts committed: 5569189, IPC: 0.278459
8662222092000: Event_144: system.switch_cpus progress event, total committed:1852828801, progress insts committed: 5405195, IPC: 00.27026
8672222092000: Event_144: system.switch_cpus progress event, total committed:1858086286, progress insts committed: 5257485, IPC: 0.262874
8682222092000: Event_144: system.switch_cpus progress event, total committed:1863529365, progress insts committed: 5443079, IPC: 0.272154
8692222092000: Event_144: system.switch_cpus progress event, total committed:1869080285, progress insts committed: 5550920, IPC: 0.277546
8702222092000: Event_144: system.switch_cpus progress event, total committed:1874403109, progress insts committed: 5322824, IPC: 0.266141
8712222092000: Event_144: system.switch_cpus progress event, total committed:1879801061, progress insts committed: 5397952, IPC: 0.269898
8722222092000: Event_144: system.switch_cpus progress event, total committed:1884947737, progress insts committed: 5146676, IPC: 0.257334
8732222092000: Event_144: system.switch_cpus progress event, total committed:1890121346, progress insts committed: 5173609, IPC: 00.25868
8742222092000: Event_144: system.switch_cpus progress event, total committed:1895376578, progress insts committed: 5255232, IPC: 0.262762
8752222092000: Event_144: system.switch_cpus progress event, total committed:1900784939, progress insts committed: 5408361, IPC: 0.270418
8762222092000: Event_144: system.switch_cpus progress event, total committed:1905836010, progress insts committed: 5051071, IPC: 0.252554
8772222092000: Event_144: system.switch_cpus progress event, total committed:1911077688, progress insts committed: 5241678, IPC: 0.262084
8782222092000: Event_144: system.switch_cpus progress event, total committed:1916450932, progress insts committed: 5373244, IPC: 0.268662
8792222092000: Event_144: system.switch_cpus progress event, total committed:1921855450, progress insts committed: 5404518, IPC: 0.270226
8802222092000: Event_144: system.switch_cpus progress event, total committed:1927087703, progress insts committed: 5232253, IPC: 0.261613
8812222092000: Event_144: system.switch_cpus progress event, total committed:1932527772, progress insts committed: 5440069, IPC: 0.272003
8822222092000: Event_144: system.switch_cpus progress event, total committed:1938017169, progress insts committed: 5489397, IPC: 00.27447
8832222092000: Event_144: system.switch_cpus progress event, total committed:1943508137, progress insts committed: 5490968, IPC: 0.274548
8842222092000: Event_144: system.switch_cpus progress event, total committed:1948952734, progress insts committed: 5444597, IPC: 00.27223
8852222092000: Event_144: system.switch_cpus progress event, total committed:1954385487, progress insts committed: 5432753, IPC: 0.271638
8862222092000: Event_144: system.switch_cpus progress event, total committed:1959876039, progress insts committed: 5490552, IPC: 0.274528
8872222092000: Event_144: system.switch_cpus progress event, total committed:1965439528, progress insts committed: 5563489, IPC: 0.278174
8882222092000: Event_144: system.switch_cpus progress event, total committed:1970888019, progress insts committed: 5448491, IPC: 0.272425
8892222092000: Event_144: system.switch_cpus progress event, total committed:1976294535, progress insts committed: 5406516, IPC: 0.270326
8902222092000: Event_144: system.switch_cpus progress event, total committed:1981724416, progress insts committed: 5429881, IPC: 0.271494
8912222092000: Event_144: system.switch_cpus progress event, total committed:1987224474, progress insts committed: 5500058, IPC: 0.275003
8922222092000: Event_144: system.switch_cpus progress event, total committed:1992704352, progress insts committed: 5479878, IPC: 0.273994
8932222092000: Event_144: system.switch_cpus progress event, total committed:1998037969, progress insts committed: 5333617, IPC: 0.266681
8942222092000: Event_144: system.switch_cpus progress event, total committed:2003391028, progress insts committed: 5353059, IPC: 0.267653
8952222092000: Event_144: system.switch_cpus progress event, total committed:2008797895, progress insts committed: 5406867, IPC: 0.270343
8962222092000: Event_144: system.switch_cpus progress event, total committed:2014191435, progress insts committed: 5393540, IPC: 0.269677
8972222092000: Event_144: system.switch_cpus progress event, total committed:2019446036, progress insts committed: 5254601, IPC: 00.26273
8982222092000: Event_144: system.switch_cpus progress event, total committed:2024715053, progress insts committed: 5269017, IPC: 0.263451
8992222092000: Event_144: system.switch_cpus progress event, total committed:2030043533, progress insts committed: 5328480, IPC: 0.266424
9002222092000: Event_144: system.switch_cpus progress event, total committed:2035349357, progress insts committed: 5305824, IPC: 0.265291
9012222092000: Event_144: system.switch_cpus progress event, total committed:2040597082, progress insts committed: 5247725, IPC: 0.262386
9022222092000: Event_144: system.switch_cpus progress event, total committed:2045904981, progress insts committed: 5307899, IPC: 0.265395
9032222092000: Event_144: system.switch_cpus progress event, total committed:2051250215, progress insts committed: 5345234, IPC: 0.267262
9042222092000: Event_144: system.switch_cpus progress event, total committed:2056567527, progress insts committed: 5317312, IPC: 0.265866
9052222092000: Event_144: system.switch_cpus progress event, total committed:2061942542, progress insts committed: 5375015, IPC: 0.268751
9062222092000: Event_144: system.switch_cpus progress event, total committed:2067147066, progress insts committed: 5204524, IPC: 0.260226
9072222092000: Event_144: system.switch_cpus progress event, total committed:2072407190, progress insts committed: 5260124, IPC: 0.263006
9082222092000: Event_144: system.switch_cpus progress event, total committed:2077708701, progress insts committed: 5301511, IPC: 0.265076
9092222092000: Event_144: system.switch_cpus progress event, total committed:2082978247, progress insts committed: 5269546, IPC: 0.263477
9102222092000: Event_144: system.switch_cpus progress event, total committed:2088023829, progress insts committed: 5045582, IPC: 0.252279
9112222092000: Event_144: system.switch_cpus progress event, total committed:2093200836, progress insts committed: 5177007, IPC: 00.25885
9122222092000: Event_144: system.switch_cpus progress event, total committed:2098284171, progress insts committed: 5083335, IPC: 0.254167
9132222092000: Event_144: system.switch_cpus progress event, total committed:2103545105, progress insts committed: 5260934, IPC: 0.263047
9142222092000: Event_144: system.switch_cpus progress event, total committed:2108514834, progress insts committed: 4969729, IPC: 0.248486
9152222092000: Event_144: system.switch_cpus progress event, total committed:2113686150, progress insts committed: 5171316, IPC: 0.258566
9162222092000: Event_144: system.switch_cpus progress event, total committed:2118888353, progress insts committed: 5202203, IPC: 00.26011
9172222092000: Event_144: system.switch_cpus progress event, total committed:2124037912, progress insts committed: 5149559, IPC: 0.257478
9182222092000: Event_144: system.switch_cpus progress event, total committed:2129014936, progress insts committed: 4977024, IPC: 0.248851
9192222092000: Event_144: system.switch_cpus progress event, total committed:2134253916, progress insts committed: 5238980, IPC: 0.261949
9202222092000: Event_144: system.switch_cpus progress event, total committed:2139478949, progress insts committed: 5225033, IPC: 0.261252
9212222092000: Event_144: system.switch_cpus progress event, total committed:2144632743, progress insts committed: 5153794, IPC: 00.25769
9222222092000: Event_144: system.switch_cpus progress event, total committed:2149839826, progress insts committed: 5207083, IPC: 0.260354
9232222092000: Event_144: system.switch_cpus progress event, total committed:2154883845, progress insts committed: 5044019, IPC: 0.252201
9242222092000: Event_144: system.switch_cpus progress event, total committed:2160181287, progress insts committed: 5297442, IPC: 0.264872
9252222092000: Event_144: system.switch_cpus progress event, total committed:2165472669, progress insts committed: 5291382, IPC: 0.264569
9262222092000: Event_144: system.switch_cpus progress event, total committed:2170845217, progress insts committed: 5372548, IPC: 0.268627
9272222092000: Event_144: system.switch_cpus progress event, total committed:2176152752, progress insts committed: 5307535, IPC: 0.265377
9282222092000: Event_144: system.switch_cpus progress event, total committed:2181588072, progress insts committed: 5435320, IPC: 0.271766
9292222092000: Event_144: system.switch_cpus progress event, total committed:2186946109, progress insts committed: 5358037, IPC: 0.267902
9302222092000: Event_144: system.switch_cpus progress event, total committed:2192514732, progress insts committed: 5568623, IPC: 0.278431
9312222092000: Event_144: system.switch_cpus progress event, total committed:2197952548, progress insts committed: 5437816, IPC: 0.271891
9322222092000: Event_144: system.switch_cpus progress event, total committed:2203345356, progress insts committed: 5392808, IPC: 00.26964
9332222092000: Event_144: system.switch_cpus progress event, total committed:2208753254, progress insts committed: 5407898, IPC: 0.270395
9342222092000: Event_144: system.switch_cpus progress event, total committed:2214244303, progress insts committed: 5491049, IPC: 0.274552
9352222092000: Event_144: system.switch_cpus progress event, total committed:2219544401, progress insts committed: 5300098, IPC: 0.265005
9362222092000: Event_144: system.switch_cpus progress event, total committed:2224807196, progress insts committed: 5262795, IPC: 00.26314
9372222092000: Event_144: system.switch_cpus progress event, total committed:2230113289, progress insts committed: 5306093, IPC: 0.265305
9382222092000: Event_144: system.switch_cpus progress event, total committed:2235518897, progress insts committed: 5405608, IPC: 00.27028
9392222092000: Event_144: system.switch_cpus progress event, total committed:2240789590, progress insts committed: 5270693, IPC: 0.263535
9402222092000: Event_144: system.switch_cpus progress event, total committed:2245907940, progress insts committed: 5118350, IPC: 0.255918
9412222092000: Event_144: system.switch_cpus progress event, total committed:2251139308, progress insts committed: 5231368, IPC: 0.261568
9422222092000: Event_144: system.switch_cpus progress event, total committed:2256426718, progress insts committed: 5287410, IPC: 0.264371
9432222092000: Event_144: system.switch_cpus progress event, total committed:2261681650, progress insts committed: 5254932, IPC: 0.262747
9442222092000: Event_144: system.switch_cpus progress event, total committed:2266833287, progress insts committed: 5151637, IPC: 0.257582
9452222092000: Event_144: system.switch_cpus progress event, total committed:2272003641, progress insts committed: 5170354, IPC: 0.258518
9462222092000: Event_144: system.switch_cpus progress event, total committed:2277102791, progress insts committed: 5099150, IPC: 0.254958
9472222092000: Event_144: system.switch_cpus progress event, total committed:2282382659, progress insts committed: 5279868, IPC: 0.263993
9482222092000: Event_144: system.switch_cpus progress event, total committed:2287495028, progress insts committed: 5112369, IPC: 0.255618
9492222092000: Event_144: system.switch_cpus progress event, total committed:2292649875, progress insts committed: 5154847, IPC: 0.257742
9502222092000: Event_144: system.switch_cpus progress event, total committed:2297776282, progress insts committed: 5126407, IPC: 00.25632
9512222092000: Event_144: system.switch_cpus progress event, total committed:2302998980, progress insts committed: 5222698, IPC: 0.261135
9522222092000: Event_144: system.switch_cpus progress event, total committed:2308184404, progress insts committed: 5185424, IPC: 0.259271
9532222092000: Event_144: system.switch_cpus progress event, total committed:2313380793, progress insts committed: 5196389, IPC: 0.259819
9542222092000: Event_144: system.switch_cpus progress event, total committed:2318607621, progress insts committed: 5226828, IPC: 0.261341
9552222092000: Event_144: system.switch_cpus progress event, total committed:2324049675, progress insts committed: 5442054, IPC: 0.272103
9562222092000: Event_144: system.switch_cpus progress event, total committed:2329465278, progress insts committed: 5415603, IPC: 00.27078
9572222092000: Event_144: system.switch_cpus progress event, total committed:2334791400, progress insts committed: 5326122, IPC: 0.266306
9582222092000: Event_144: system.switch_cpus progress event, total committed:2340305480, progress insts committed: 5514080, IPC: 0.275704
9592222092000: Event_144: system.switch_cpus progress event, total committed:2345834898, progress insts committed: 5529418, IPC: 0.276471
9602222092000: Event_144: system.switch_cpus progress event, total committed:2351175265, progress insts committed: 5340367, IPC: 0.267018
9612222092000: Event_144: system.switch_cpus progress event, total committed:2356642630, progress insts committed: 5467365, IPC: 0.273368
9622222092000: Event_144: system.switch_cpus progress event, total committed:2362110569, progress insts committed: 5467939, IPC: 0.273397
9632222092000: Event_144: system.switch_cpus progress event, total committed:2367594876, progress insts committed: 5484307, IPC: 0.274215
9642222092000: Event_144: system.switch_cpus progress event, total committed:2373004279, progress insts committed: 5409403, IPC: 00.27047
9652222092000: Event_144: system.switch_cpus progress event, total committed:2378499798, progress insts committed: 5495519, IPC: 0.274776
9662222092000: Event_144: system.switch_cpus progress event, total committed:2383918735, progress insts committed: 5418937, IPC: 0.270947
9672222092000: Event_144: system.switch_cpus progress event, total committed:2389211699, progress insts committed: 5292964, IPC: 0.264648
9682222092000: Event_144: system.switch_cpus progress event, total committed:2394586697, progress insts committed: 5374998, IPC: 00.26875
9692222092000: Event_144: system.switch_cpus progress event, total committed:2399924460, progress insts committed: 5337763, IPC: 0.266888
9702222092000: Event_144: system.switch_cpus progress event, total committed:2405198372, progress insts committed: 5273912, IPC: 0.263696
9712222092000: Event_144: system.switch_cpus progress event, total committed:2410518710, progress insts committed: 5320338, IPC: 0.266017
9722222092000: Event_144: system.switch_cpus progress event, total committed:2415731635, progress insts committed: 5212925, IPC: 0.260646
9732222092000: Event_144: system.switch_cpus progress event, total committed:2421035738, progress insts committed: 5304103, IPC: 0.265205
9742222092000: Event_144: system.switch_cpus progress event, total committed:2426035591, progress insts committed: 4999853, IPC: 0.249993
9752222092000: Event_144: system.switch_cpus progress event, total committed:2431350263, progress insts committed: 5314672, IPC: 0.265734
9762222092000: Event_144: system.switch_cpus progress event, total committed:2436624174, progress insts committed: 5273911, IPC: 0.263696
9772222092000: Event_144: system.switch_cpus progress event, total committed:2441899237, progress insts committed: 5275063, IPC: 0.263753
9782222092000: Event_144: system.switch_cpus progress event, total committed:2446986489, progress insts committed: 5087252, IPC: 0.254363
9792222092000: Event_144: system.switch_cpus progress event, total committed:2452422221, progress insts committed: 5435732, IPC: 0.271787
9802222092000: Event_144: system.switch_cpus progress event, total committed:2457834194, progress insts committed: 5411973, IPC: 0.270599
9812222092000: Event_144: system.switch_cpus progress event, total committed:2463205521, progress insts committed: 5371327, IPC: 0.268566
9822222092000: Event_144: system.switch_cpus progress event, total committed:2468499215, progress insts committed: 5293694, IPC: 0.264685
9832222092000: Event_144: system.switch_cpus progress event, total committed:2473847141, progress insts committed: 5347926, IPC: 0.267396
9842222092000: Event_144: system.switch_cpus progress event, total committed:2479247273, progress insts committed: 5400132, IPC: 0.270007
9852222092000: Event_144: system.switch_cpus progress event, total committed:2484542406, progress insts committed: 5295133, IPC: 0.264757
9862222092000: Event_144: system.switch_cpus progress event, total committed:2489775242, progress insts committed: 5232836, IPC: 0.261642
9872222092000: Event_144: system.switch_cpus progress event, total committed:2495044635, progress insts committed: 5269393, IPC: 00.26347
9882222092000: Event_144: system.switch_cpus progress event, total committed:2500328790, progress insts committed: 5284155, IPC: 0.264208
9892222092000: Event_144: system.switch_cpus progress event, total committed:2505571873, progress insts committed: 5243083, IPC: 0.262154
9902222092000: Event_144: system.switch_cpus progress event, total committed:2510926042, progress insts committed: 5354169, IPC: 0.267708
9912222092000: Event_144: system.switch_cpus progress event, total committed:2516117701, progress insts committed: 5191659, IPC: 0.259583
9922222092000: Event_144: system.switch_cpus progress event, total committed:2521433768, progress insts committed: 5316067, IPC: 0.265803
9932222092000: Event_144: system.switch_cpus progress event, total committed:2526776215, progress insts committed: 5342447, IPC: 0.267122
9942222092000: Event_144: system.switch_cpus progress event, total committed:2532088857, progress insts committed: 5312642, IPC: 0.265632
9952222092000: Event_144: system.switch_cpus progress event, total committed:2537316815, progress insts committed: 5227958, IPC: 0.261398
9962222092000: Event_144: system.switch_cpus progress event, total committed:2542678765, progress insts committed: 5361950, IPC: 0.268097
9972222092000: Event_144: system.switch_cpus progress event, total committed:2548091286, progress insts committed: 5412521, IPC: 0.270626
9982222092000: Event_144: system.switch_cpus progress event, total committed:2553277719, progress insts committed: 5186433, IPC: 0.259322
9992222092000: Event_144: system.switch_cpus progress event, total committed:2558499075, progress insts committed: 5221356, IPC: 0.261068
10002222092000: Event_144: system.switch_cpus progress event, total committed:2563875581, progress insts committed: 5376506, IPC: 0.268825
10012222092000: Event_144: system.switch_cpus progress event, total committed:2569073067, progress insts committed: 5197486, IPC: 0.259874
10022222092000: Event_144: system.switch_cpus progress event, total committed:2574360759, progress insts committed: 5287692, IPC: 0.264385
10032222092000: Event_144: system.switch_cpus progress event, total committed:2579603672, progress insts committed: 5242913, IPC: 0.262146
10042222092000: Event_144: system.switch_cpus progress event, total committed:2584754104, progress insts committed: 5150432, IPC: 0.257522
10052222092000: Event_144: system.switch_cpus progress event, total committed:2589948784, progress insts committed: 5194680, IPC: 0.259734
10062222092000: Event_144: system.switch_cpus progress event, total committed:2595087591, progress insts committed: 5138807, IPC: 00.25694
10072222092000: Event_144: system.switch_cpus progress event, total committed:2600441903, progress insts committed: 5354312, IPC: 0.267716
10082222092000: Event_144: system.switch_cpus progress event, total committed:2605568110, progress insts committed: 5126207, IPC: 00.25631
10092222092000: Event_144: system.switch_cpus progress event, total committed:2610862053, progress insts committed: 5293943, IPC: 0.264697
10102222092000: Event_144: system.switch_cpus progress event, total committed:2616028739, progress insts committed: 5166686, IPC: 0.258334
10112222092000: Event_144: system.switch_cpus progress event, total committed:2621236179, progress insts committed: 5207440, IPC: 0.260372
10122222092000: Event_144: system.switch_cpus progress event, total committed:2626312497, progress insts committed: 5076318, IPC: 0.253816
10132222092000: Event_144: system.switch_cpus progress event, total committed:2631460199, progress insts committed: 5147702, IPC: 0.257385
10142222092000: Event_144: system.switch_cpus progress event, total committed:2636613105, progress insts committed: 5152906, IPC: 0.257645
10152222092000: Event_144: system.switch_cpus progress event, total committed:2641836468, progress insts committed: 5223363, IPC: 0.261168
10162222092000: Event_144: system.switch_cpus progress event, total committed:2646931608, progress insts committed: 5095140, IPC: 0.254757
10172222092000: Event_144: system.switch_cpus progress event, total committed:2652275096, progress insts committed: 5343488, IPC: 0.267174
10182222092000: Event_144: system.switch_cpus progress event, total committed:2657625350, progress insts committed: 5350254, IPC: 0.267513
10192222092000: Event_144: system.switch_cpus progress event, total committed:2662956313, progress insts committed: 5330963, IPC: 0.266548
10202222092000: Event_144: system.switch_cpus progress event, total committed:2668345770, progress insts committed: 5389457, IPC: 0.269473
10212222092000: Event_144: system.switch_cpus progress event, total committed:2673517431, progress insts committed: 5171661, IPC: 0.258583
10222222092000: Event_144: system.switch_cpus progress event, total committed:2678831032, progress insts committed: 5313601, IPC: 00.26568
10232222092000: Event_144: system.switch_cpus progress event, total committed:2684198777, progress insts committed: 5367745, IPC: 0.268387
10242222092000: Event_144: system.switch_cpus progress event, total committed:2689530861, progress insts committed: 5332084, IPC: 0.266604
10252222092000: Event_144: system.switch_cpus progress event, total committed:2694688646, progress insts committed: 5157785, IPC: 0.257889
10262222092000: Event_144: system.switch_cpus progress event, total committed:2700009718, progress insts committed: 5321072, IPC: 0.266054
10272222092000: Event_144: system.switch_cpus progress event, total committed:2705267849, progress insts committed: 5258131, IPC: 0.262907
10282222092000: Event_144: system.switch_cpus progress event, total committed:2710613243, progress insts committed: 5345394, IPC: 00.26727
10292222092000: Event_144: system.switch_cpus progress event, total committed:2715837345, progress insts committed: 5224102, IPC: 0.261205
10302222092000: Event_144: system.switch_cpus progress event, total committed:2721149969, progress insts committed: 5312624, IPC: 0.265631
10312222092000: Event_144: system.switch_cpus progress event, total committed:2726415849, progress insts committed: 5265880, IPC: 0.263294
10322222092000: Event_144: system.switch_cpus progress event, total committed:2731894617, progress insts committed: 5478768, IPC: 0.273938
10332222092000: Event_144: system.switch_cpus progress event, total committed:2737258804, progress insts committed: 5364187, IPC: 0.268209
10342222092000: Event_144: system.switch_cpus progress event, total committed:2742770021, progress insts committed: 5511217, IPC: 0.275561
10352222092000: Event_144: system.switch_cpus progress event, total committed:2748068194, progress insts committed: 5298173, IPC: 0.264909
10362222092000: Event_144: system.switch_cpus progress event, total committed:2753584053, progress insts committed: 5515859, IPC: 0.275793
10372222092000: Event_144: system.switch_cpus progress event, total committed:2758992805, progress insts committed: 5408752, IPC: 0.270438
10382222092000: Event_144: system.switch_cpus progress event, total committed:2764261754, progress insts committed: 5268949, IPC: 0.263447
10392222092000: Event_144: system.switch_cpus progress event, total committed:2769588455, progress insts committed: 5326701, IPC: 0.266335
10402222092000: Event_144: system.switch_cpus progress event, total committed:2775091613, progress insts committed: 5503158, IPC: 0.275158
10412222092000: Event_144: system.switch_cpus progress event, total committed:2780547445, progress insts committed: 5455832, IPC: 0.272792
10422222092000: Event_144: system.switch_cpus progress event, total committed:2785857969, progress insts committed: 5310524, IPC: 0.265526
10432222092000: Event_144: system.switch_cpus progress event, total committed:2791204437, progress insts committed: 5346468, IPC: 0.267323
10442222092000: Event_144: system.switch_cpus progress event, total committed:2796608972, progress insts committed: 5404535, IPC: 0.270227
10452222092000: Event_144: system.switch_cpus progress event, total committed:2801979805, progress insts committed: 5370833, IPC: 0.268542
10462222092000: Event_144: system.switch_cpus progress event, total committed:2807063477, progress insts committed: 5083672, IPC: 0.254184
10472222092000: Event_144: system.switch_cpus progress event, total committed:2812414190, progress insts committed: 5350713, IPC: 0.267536
10482222092000: Event_144: system.switch_cpus progress event, total committed:2817852342, progress insts committed: 5438152, IPC: 0.271908
10492222092000: Event_144: system.switch_cpus progress event, total committed:2823311965, progress insts committed: 5459623, IPC: 0.272981
10502222092000: Event_144: system.switch_cpus progress event, total committed:2828592247, progress insts committed: 5280282, IPC: 0.264014
10512222092000: Event_144: system.switch_cpus progress event, total committed:2834207085, progress insts committed: 5614838, IPC: 0.280742
10522222092000: Event_144: system.switch_cpus progress event, total committed:2839970021, progress insts committed: 5762936, IPC: 0.288147
10532222092000: Event_144: system.switch_cpus progress event, total committed:2845873796, progress insts committed: 5903775, IPC: 0.295189
10542222092000: Event_144: system.switch_cpus progress event, total committed:2851850954, progress insts committed: 5977158, IPC: 0.298858
10552222092000: Event_144: system.switch_cpus progress event, total committed:2858088899, progress insts committed: 6237945, IPC: 0.311897
10562222092000: Event_144: system.switch_cpus progress event, total committed:2864461366, progress insts committed: 6372467, IPC: 0.318623
10572222092000: Event_144: system.switch_cpus progress event, total committed:2871227087, progress insts committed: 6765721, IPC: 0.338286
10582222092000: Event_144: system.switch_cpus progress event, total committed:2878105840, progress insts committed: 6878753, IPC: 0.343938
10592222092000: Event_144: system.switch_cpus progress event, total committed:2885384656, progress insts committed: 7278816, IPC: 0.363941
10602222092000: Event_144: system.switch_cpus progress event, total committed:2892778026, progress insts committed: 7393370, IPC: 0.369669
10612222092000: Event_144: system.switch_cpus progress event, total committed:2900637518, progress insts committed: 7859492, IPC: 0.392975
10622222092000: Event_144: system.switch_cpus progress event, total committed:2908508635, progress insts committed: 7871117, IPC: 0.393556
10632222092000: Event_144: system.switch_cpus progress event, total committed:2916862060, progress insts committed: 8353425, IPC: 0.417671
10642222092000: Event_144: system.switch_cpus progress event, total committed:2925457268, progress insts committed: 8595208, IPC: 00.42976
10652222092000: Event_144: system.switch_cpus progress event, total committed:2934198785, progress insts committed: 8741517, IPC: 0.437076
10662222092000: Event_144: system.switch_cpus progress event, total committed:2943290405, progress insts committed: 9091620, IPC: 0.454581
10672222092000: Event_144: system.switch_cpus progress event, total committed:2952500715, progress insts committed: 9210310, IPC: 0.460516
10682222092000: Event_144: system.switch_cpus progress event, total committed:2962014448, progress insts committed: 9513733, IPC: 0.475687
10692222092000: Event_144: system.switch_cpus progress event, total committed:2971542906, progress insts committed: 9528458, IPC: 0.476423
10702222092000: Event_144: system.switch_cpus progress event, total committed:2981250231, progress insts committed: 9707325, IPC: 0.485366
10712222092000: Event_144: system.switch_cpus progress event, total committed:2991204673, progress insts committed: 9954442, IPC: 0.497722
10722222092000: Event_144: system.switch_cpus progress event, total committed:3001052941, progress insts committed: 9848268, IPC: 0.492413
10732222092000: Event_144: system.switch_cpus progress event, total committed:3011123876, progress insts committed: 10070935, IPC: 0.503547
10742222092000: Event_144: system.switch_cpus progress event, total committed:3021149153, progress insts committed: 10025277, IPC: 0.501264
10752222092000: Event_144: system.switch_cpus progress event, total committed:3031268519, progress insts committed: 10119366, IPC: 0.505968
10762222092000: Event_144: system.switch_cpus progress event, total committed:3041486908, progress insts committed: 10218389, IPC: 0.510919
10772222092000: Event_144: system.switch_cpus progress event, total committed:3051610094, progress insts committed: 10123186, IPC: 0.506159
10782222092000: Event_144: system.switch_cpus progress event, total committed:3061839497, progress insts committed: 10229403, IPC: 00.51147
10792222092000: Event_144: system.switch_cpus progress event, total committed:3072027075, progress insts committed: 10187578, IPC: 0.509379
10802222092000: Event_144: system.switch_cpus progress event, total committed:3082378642, progress insts committed: 10351567, IPC: 0.517578
10812222092000: Event_144: system.switch_cpus progress event, total committed:3092651402, progress insts committed: 10272760, IPC: 0.513638
10822222092000: Event_144: system.switch_cpus progress event, total committed:3102919722, progress insts committed: 10268320, IPC: 0.513416
10832222092000: Event_144: system.switch_cpus progress event, total committed:3113291775, progress insts committed: 10372053, IPC: 0.518603
10842222092000: Event_144: system.switch_cpus progress event, total committed:3123554539, progress insts committed: 10262764, IPC: 0.513138
10852222092000: Event_144: system.switch_cpus progress event, total committed:3133814705, progress insts committed: 10260166, IPC: 0.513008
10862222092000: Event_144: system.switch_cpus progress event, total committed:3144078499, progress insts committed: 10263794, IPC: 00.51319
10872222092000: Event_144: system.switch_cpus progress event, total committed:3154450281, progress insts committed: 10371782, IPC: 0.518589
10882222092000: Event_144: system.switch_cpus progress event, total committed:3164712956, progress insts committed: 10262675, IPC: 0.513134
10892222092000: Event_144: system.switch_cpus progress event, total committed:3174983501, progress insts committed: 10270545, IPC: 0.513527
10902222092000: Event_144: system.switch_cpus progress event, total committed:3185357047, progress insts committed: 10373546, IPC: 0.518677
10912222092000: Event_144: system.switch_cpus progress event, total committed:3195624994, progress insts committed: 10267947, IPC: 0.513397
10922222092000: Event_144: system.switch_cpus progress event, total committed:3205250229, progress insts committed: 9625235, IPC: 0.481262
10932222092000: Event_144: system.switch_cpus progress event, total committed:3213762416, progress insts committed: 8512187, IPC: 0.425609
10942222092000: Event_144: system.switch_cpus progress event, total committed:3215323210, progress insts committed: 1560794, IPC: 0.0780397
10952222092000: Event_144: system.switch_cpus progress event, total committed:3216847328, progress insts committed: 1524118, IPC: 0.0762059
10962222092000: Event_144: system.switch_cpus progress event, total committed:3222479841, progress insts committed: 5632513, IPC: 0.281626
10972222092000: Event_144: system.switch_cpus progress event, total committed:3231531339, progress insts committed: 9051498, IPC: 0.452575
10982222092000: Event_144: system.switch_cpus progress event, total committed:3241854185, progress insts committed: 10322846, IPC: 0.516142
10992222092000: Event_144: system.switch_cpus progress event, total committed:3252064298, progress insts committed: 10210113, IPC: 0.510506
11002222092000: Event_144: system.switch_cpus progress event, total committed:3262283264, progress insts committed: 10218966, IPC: 0.510948
11012222092000: Event_144: system.switch_cpus progress event, total committed:3272604249, progress insts committed: 10320985, IPC: 0.516049
11022222092000: Event_144: system.switch_cpus progress event, total committed:3282819968, progress insts committed: 10215719, IPC: 0.510786
11032222092000: Event_144: system.switch_cpus progress event, total committed:3293028945, progress insts committed: 10208977, IPC: 0.510449
11042222092000: Event_144: system.switch_cpus progress event, total committed:3303242775, progress insts committed: 10213830, IPC: 0.510691
11052222092000: Event_144: system.switch_cpus progress event, total committed:3313562630, progress insts committed: 10319855, IPC: 0.515993
11062222092000: Event_144: system.switch_cpus progress event, total committed:3323778766, progress insts committed: 10216136, IPC: 0.510807
11072222092000: Event_144: system.switch_cpus progress event, total committed:3333994045, progress insts committed: 10215279, IPC: 0.510764
11082222092000: Event_144: system.switch_cpus progress event, total committed:3344317426, progress insts committed: 10323381, IPC: 0.516169
11092222092000: Event_144: system.switch_cpus progress event, total committed:3353840256, progress insts committed: 9522830, IPC: 0.476141
11102222092000: Event_144: system.switch_cpus progress event, total committed:3362649949, progress insts committed: 8809693, IPC: 0.440485
11112222092000: Event_144: system.switch_cpus progress event, total committed:3370735995, progress insts committed: 8086046, IPC: 0.404302
11122222092000: Event_144: system.switch_cpus progress event, total committed:3377308867, progress insts committed: 6572872, IPC: 0.328644
11132222092000: Event_144: system.switch_cpus progress event, total committed:3383406883, progress insts committed: 6098016, IPC: 0.304901
11142222092000: Event_144: system.switch_cpus progress event, total committed:3388996782, progress insts committed: 5589899, IPC: 0.279495
[...]
16382222092000: Event_144: system.switch_cpus progress event, total committed:6359125603, progress insts committed: 5165980, IPC: 0.258299
16392222092000: Event_144: system.switch_cpus progress event, total committed:6364356764, progress insts committed: 5231161, IPC: 0.261558
16402222092000: Event_144: system.switch_cpus progress event, total committed:6369419434, progress insts committed: 5062670, IPC: 0.253134
16412222092000: Event_144: system.switch_cpus progress event, total committed:6374703529, progress insts committed: 5284095, IPC: 0.264205
16422222092000: Event_144: system.switch_cpus progress event, total committed:6379934018, progress insts committed: 5230489, IPC: 0.261524
16432222092000: Event_144: system.switch_cpus progress event, total committed:6385358308, progress insts committed: 5424290, IPC: 0.271215
16442222092000: Event_144: system.switch_cpus progress event, total committed:6390656691, progress insts committed: 5298383, IPC: 0.264919
16452222092000: Event_144: system.switch_cpus progress event, total committed:6396119631, progress insts committed: 5462940, IPC: 0.273147
16462222092000: Event_144: system.switch_cpus progress event, total committed:6401598239, progress insts committed: 5478608, IPC: 00.27393
16472222092000: Event_144: system.switch_cpus progress event, total committed:6407140927, progress insts committed: 5542688, IPC: 0.277134
16482222092000: Event_144: system.switch_cpus progress event, total committed:6412531181, progress insts committed: 5390254, IPC: 0.269513
16492222092000: Event_144: system.switch_cpus progress event, total committed:6417981946, progress insts committed: 5450765, IPC: 0.272538
16502222092000: Event_144: system.switch_cpus progress event, total committed:6423439318, progress insts committed: 5457372, IPC: 0.272869
16512222092000: Event_144: system.switch_cpus progress event, total committed:6428874626, progress insts committed: 5435308, IPC: 0.271765
16522222092000: Event_144: system.switch_cpus progress event, total committed:6434357989, progress insts committed: 5483363, IPC: 0.274168
16532222092000: Event_144: system.switch_cpus progress event, total committed:6439824905, progress insts committed: 5466916, IPC: 0.273346
16542222092000: Event_144: system.switch_cpus progress event, total committed:6445227521, progress insts committed: 5402616, IPC: 0.270131
16552222092000: Event_144: system.switch_cpus progress event, total committed:6450549212, progress insts committed: 5321691, IPC: 0.266085
16562222092000: Event_144: system.switch_cpus progress event, total committed:6455957211, progress insts committed: 5407999, IPC: 000.2704
16572222092000: Event_144: system.switch_cpus progress event, total committed:6461239195, progress insts committed: 5281984, IPC: 0.264099
16582222092000: Event_144: system.switch_cpus progress event, total committed:6466547086, progress insts committed: 5307891, IPC: 0.265395
16592222092000: Event_144: system.switch_cpus progress event, total committed:6471808630, progress insts committed: 5261544, IPC: 0.263077
16602222092000: Event_144: system.switch_cpus progress event, total committed:6477116882, progress insts committed: 5308252, IPC: 0.265413
16612222092000: Event_144: system.switch_cpus progress event, total committed:6482311894, progress insts committed: 5195012, IPC: 0.259751
16622222092000: Event_144: system.switch_cpus progress event, total committed:6487393180, progress insts committed: 5081286, IPC: 0.254064
16632222092000: Event_144: system.switch_cpus progress event, total committed:6492692073, progress insts committed: 5298893, IPC: 0.264945
16642222092000: Event_144: system.switch_cpus progress event, total committed:6497985450, progress insts committed: 5293377, IPC: 0.264669
16652222092000: Event_144: system.switch_cpus progress event, total committed:6503247431, progress insts committed: 5261981, IPC: 0.263099
16662222092000: Event_144: system.switch_cpus progress event, total committed:6508359242, progress insts committed: 5111811, IPC: 0.255591
16672222092000: Event_144: system.switch_cpus progress event, total committed:6513736682, progress insts committed: 5377440, IPC: 0.268872
16682222092000: Event_144: system.switch_cpus progress event, total committed:6519162762, progress insts committed: 5426080, IPC: 0.271304
16692222092000: Event_144: system.switch_cpus progress event, total committed:6524525131, progress insts committed: 5362369, IPC: 0.268118
16702222092000: Event_144: system.switch_cpus progress event, total committed:6529795333, progress insts committed: 5270202, IPC: 00.26351
16712222092000: Event_144: system.switch_cpus progress event, total committed:6535210391, progress insts committed: 5415058, IPC: 0.270753
16722222092000: Event_144: system.switch_cpus progress event, total committed:6540564574, progress insts committed: 5354183, IPC: 0.267709
16732222092000: Event_144: system.switch_cpus progress event, total committed:6545858791, progress insts committed: 5294217, IPC: 0.264711
16742222092000: Event_144: system.switch_cpus progress event, total committed:6551044892, progress insts committed: 5186101, IPC: 0.259305
16752222092000: Event_144: system.switch_cpus progress event, total committed:6556383142, progress insts committed: 5338250, IPC: 0.266912
16762222092000: Event_144: system.switch_cpus progress event, total committed:6561710954, progress insts committed: 5327812, IPC: 0.266391
16772222092000: Event_144: system.switch_cpus progress event, total committed:6566937150, progress insts committed: 5226196, IPC: 00.26131
16782222092000: Event_144: system.switch_cpus progress event, total committed:6572176359, progress insts committed: 5239209, IPC: 00.26196
16792222092000: Event_144: system.switch_cpus progress event, total committed:6577371608, progress insts committed: 5195249, IPC: 0.259762
16802222092000: Event_144: system.switch_cpus progress event, total committed:6582749581, progress insts committed: 5377973, IPC: 0.268899
16812222092000: Event_144: system.switch_cpus progress event, total committed:6588099923, progress insts committed: 5350342, IPC: 0.267517
16822222092000: Event_144: system.switch_cpus progress event, total committed:6593416132, progress insts committed: 5316209, IPC: 00.26581
16832222092000: Event_144: system.switch_cpus progress event, total committed:6598652790, progress insts committed: 5236658, IPC: 0.261833
16842222092000: Event_144: system.switch_cpus progress event, total committed:6604034560, progress insts committed: 5381770, IPC: 0.269089
16852222092000: Event_144: system.switch_cpus progress event, total committed:6609399120, progress insts committed: 5364560, IPC: 0.268228
16862222092000: Event_144: system.switch_cpus progress event, total committed:6614632503, progress insts committed: 5233383, IPC: 0.261669
16872222092000: Event_144: system.switch_cpus progress event, total committed:6619826239, progress insts committed: 5193736, IPC: 0.259687
16882222092000: Event_144: system.switch_cpus progress event, total committed:6625177390, progress insts committed: 5351151, IPC: 0.267558
16892222092000: Event_144: system.switch_cpus progress event, total committed:6630456459, progress insts committed: 5279069, IPC: 0.263953
16902222092000: Event_144: system.switch_cpus progress event, total committed:6635702168, progress insts committed: 5245709, IPC: 0.262285
16912222092000: Event_144: system.switch_cpus progress event, total committed:6640798389, progress insts committed: 5096221, IPC: 0.254811
16922222092000: Event_144: system.switch_cpus progress event, total committed:6646101657, progress insts committed: 5303268, IPC: 0.265163
16932222092000: Event_144: system.switch_cpus progress event, total committed:6651250558, progress insts committed: 5148901, IPC: 0.257445
16942222092000: Event_144: system.switch_cpus progress event, total committed:6656443759, progress insts committed: 5193201, IPC: 00.25966
16952222092000: Event_144: system.switch_cpus progress event, total committed:6661782930, progress insts committed: 5339171, IPC: 0.266959
16962222092000: Event_144: system.switch_cpus progress event, total committed:6666937624, progress insts committed: 5154694, IPC: 0.257735
16972222092000: Event_144: system.switch_cpus progress event, total committed:6672180226, progress insts committed: 5242602, IPC: 00.26213
16982222092000: Event_144: system.switch_cpus progress event, total committed:6677379119, progress insts committed: 5198893, IPC: 0.259945
16992222092000: Event_144: system.switch_cpus progress event, total committed:6682599217, progress insts committed: 5220098, IPC: 0.261005
17002222092000: Event_144: system.switch_cpus progress event, total committed:6687643707, progress insts committed: 5044490, IPC: 0.252225
17012222092000: Event_144: system.switch_cpus progress event, total committed:6692781842, progress insts committed: 5138135, IPC: 0.256907
17022222092000: Event_144: system.switch_cpus progress event, total committed:6697915396, progress insts committed: 5133554, IPC: 0.256678
17032222092000: Event_144: system.switch_cpus progress event, total committed:6703200110, progress insts committed: 5284714, IPC: 0.264236
17042222092000: Event_144: system.switch_cpus progress event, total committed:6708326122, progress insts committed: 5126012, IPC: 0.256301
17052222092000: Event_144: system.switch_cpus progress event, total committed:6713584122, progress insts committed: 5258000, IPC: 000.2629
17062222092000: Event_144: system.switch_cpus progress event, total committed:6718897971, progress insts committed: 5313849, IPC: 0.265692
17072222092000: Event_144: system.switch_cpus progress event, total committed:6724289917, progress insts committed: 5391946, IPC: 0.269597
17082222092000: Event_144: system.switch_cpus progress event, total committed:6729506153, progress insts committed: 5216236, IPC: 0.260812
17092222092000: Event_144: system.switch_cpus progress event, total committed:6734844618, progress insts committed: 5338465, IPC: 0.266923
17102222092000: Event_144: system.switch_cpus progress event, total committed:6740198693, progress insts committed: 5354075, IPC: 0.267704
17112222092000: Event_144: system.switch_cpus progress event, total committed:6745529543, progress insts committed: 5330850, IPC: 0.266543
17122222092000: Event_144: system.switch_cpus progress event, total committed:6750875232, progress insts committed: 5345689, IPC: 0.267284
17132222092000: Event_144: system.switch_cpus progress event, total committed:6755996095, progress insts committed: 5120863, IPC: 0.256043
17142222092000: Event_144: system.switch_cpus progress event, total committed:6761328582, progress insts committed: 5332487, IPC: 0.266624
17152222092000: Event_144: system.switch_cpus progress event, total committed:6766551996, progress insts committed: 5223414, IPC: 0.261171
17162222092000: Event_144: system.switch_cpus progress event, total committed:6771944344, progress insts committed: 5392348, IPC: 0.269617
17172222092000: Event_144: system.switch_cpus progress event, total committed:6777164965, progress insts committed: 5220621, IPC: 0.261031
17182222092000: Event_144: system.switch_cpus progress event, total committed:6782483318, progress insts committed: 5318353, IPC: 0.265918
17192222092000: Event_144: system.switch_cpus progress event, total committed:6787756605, progress insts committed: 5273287, IPC: 0.263664
17202222092000: Event_144: system.switch_cpus progress event, total committed:6793212147, progress insts committed: 5455542, IPC: 0.272777
17212222092000: Event_144: system.switch_cpus progress event, total committed:6798587971, progress insts committed: 5375824, IPC: 0.268791
17222222092000: Event_144: system.switch_cpus progress event, total committed:6804040635, progress insts committed: 5452664, IPC: 0.272633
17232222092000: Event_144: system.switch_cpus progress event, total committed:6809377833, progress insts committed: 5337198, IPC: 00.26686
17242222092000: Event_144: system.switch_cpus progress event, total committed:6814876499, progress insts committed: 5498666, IPC: 0.274933
17252222092000: Event_144: system.switch_cpus progress event, total committed:6820145471, progress insts committed: 5268972, IPC: 0.263449
17262222092000: Event_144: system.switch_cpus progress event, total committed:6825569181, progress insts committed: 5423710, IPC: 0.271186
17272222092000: Event_144: system.switch_cpus progress event, total committed:6830938093, progress insts committed: 5368912, IPC: 0.268446
17282222092000: Event_144: system.switch_cpus progress event, total committed:6836401929, progress insts committed: 5463836, IPC: 0.273192
17292222092000: Event_144: system.switch_cpus progress event, total committed:6841899488, progress insts committed: 5497559, IPC: 0.274878
17302222092000: Event_144: system.switch_cpus progress event, total committed:6847130024, progress insts committed: 5230536, IPC: 0.261527
17312222092000: Event_144: system.switch_cpus progress event, total committed:6852536504, progress insts committed: 5406480, IPC: 0.270324
17322222092000: Event_144: system.switch_cpus progress event, total committed:6857930427, progress insts committed: 5393923, IPC: 0.269696
17332222092000: Event_144: system.switch_cpus progress event, total committed:6863264514, progress insts committed: 5334087, IPC: 0.266704
17342222092000: Event_144: system.switch_cpus progress event, total committed:6868351906, progress insts committed: 5087392, IPC: 00.25437
17352222092000: Event_144: system.switch_cpus progress event, total committed:6873738815, progress insts committed: 5386909, IPC: 0.269345
17362222092000: Event_144: system.switch_cpus progress event, total committed:6879163925, progress insts committed: 5425110, IPC: 0.271255
17372222092000: Event_144: system.switch_cpus progress event, total committed:6884639730, progress insts committed: 5475805, IPC: 00.27379
17382222092000: Event_144: system.switch_cpus progress event, total committed:6889906213, progress insts committed: 5266483, IPC: 0.263324
17392222092000: Event_144: system.switch_cpus progress event, total committed:6895483426, progress insts committed: 5577213, IPC: 0.278861
17402222092000: Event_144: system.switch_cpus progress event, total committed:6901263748, progress insts committed: 5780322, IPC: 0.289016
17412222092000: Event_144: system.switch_cpus progress event, total committed:6907149142, progress insts committed: 5885394, IPC: 00.29427
17422222092000: Event_144: system.switch_cpus progress event, total committed:6912965377, progress insts committed: 5816235, IPC: 0.290812
17432222092000: Event_144: system.switch_cpus progress event, total committed:6919372471, progress insts committed: 6407094, IPC: 0.320355
17442222092000: Event_144: system.switch_cpus progress event, total committed:6925752460, progress insts committed: 6379989, IPC: 0.318999
17452222092000: Event_144: system.switch_cpus progress event, total committed:6932427011, progress insts committed: 6674551, IPC: 0.333728
17462222092000: Event_144: system.switch_cpus progress event, total committed:6939226329, progress insts committed: 6799318, IPC: 0.339966
17472222092000: Event_144: system.switch_cpus progress event, total committed:6946553411, progress insts committed: 7327082, IPC: 0.366354
17482222092000: Event_144: system.switch_cpus progress event, total committed:6954018327, progress insts committed: 7464916, IPC: 0.373246
17492222092000: Event_144: system.switch_cpus progress event, total committed:6961752592, progress insts committed: 7734265, IPC: 0.386713
17502222092000: Event_144: system.switch_cpus progress event, total committed:6969736915, progress insts committed: 7984323, IPC: 0.399216
17512222092000: Event_144: system.switch_cpus progress event, total committed:6977998062, progress insts committed: 8261147, IPC: 0.413057
17522222092000: Event_144: system.switch_cpus progress event, total committed:6986606605, progress insts committed: 8608543, IPC: 0.430427
17532222092000: Event_144: system.switch_cpus progress event, total committed:6995271846, progress insts committed: 8665241, IPC: 0.433262
17542222092000: Event_144: system.switch_cpus progress event, total committed:7004346187, progress insts committed: 9074341, IPC: 0.453717
17552222092000: Event_144: system.switch_cpus progress event, total committed:7013532800, progress insts committed: 9186613, IPC: 0.459331
17562222092000: Event_144: system.switch_cpus progress event, total committed:7023062691, progress insts committed: 9529891, IPC: 0.476495
17572222092000: Event_144: system.switch_cpus progress event, total committed:7032642832, progress insts committed: 9580141, IPC: 0.479007
17582222092000: Event_144: system.switch_cpus progress event, total committed:7042287937, progress insts committed: 9645105, IPC: 0.482255
17592222092000: Event_144: system.switch_cpus progress event, total committed:7052258727, progress insts committed: 9970790, IPC: 00.49854
17602222092000: Event_144: system.switch_cpus progress event, total committed:7062037766, progress insts committed: 9779039, IPC: 0.488952
17612222092000: Event_144: system.switch_cpus progress event, total committed:7072107826, progress insts committed: 10070060, IPC: 0.503503
17622222092000: Event_144: system.switch_cpus progress event, total committed:7082133445, progress insts committed: 10025619, IPC: 0.501281
17632222092000: Event_144: system.switch_cpus progress event, total committed:7092253927, progress insts committed: 10120482, IPC: 0.506024
17642222092000: Event_144: system.switch_cpus progress event, total committed:7102470477, progress insts committed: 10216550, IPC: 0.510827
17652222092000: Event_144: system.switch_cpus progress event, total committed:7112617158, progress insts committed: 10146681, IPC: 0.507334
17662222092000: Event_144: system.switch_cpus progress event, total committed:7122829771, progress insts committed: 10212613, IPC: 0.510631
17672222092000: Event_144: system.switch_cpus progress event, total committed:7133022899, progress insts committed: 10193128, IPC: 0.509656
17682222092000: Event_144: system.switch_cpus progress event, total committed:7143375567, progress insts committed: 10352668, IPC: 0.517633
17692222092000: Event_144: system.switch_cpus progress event, total committed:7153641306, progress insts committed: 10265739, IPC: 0.513287
17702222092000: Event_144: system.switch_cpus progress event, total committed:7163900367, progress insts committed: 10259061, IPC: 0.512953
17712222092000: Event_144: system.switch_cpus progress event, total committed:7174273542, progress insts committed: 10373175, IPC: 0.518659
17722222092000: Event_144: system.switch_cpus progress event, total committed:7184539642, progress insts committed: 10266100, IPC: 0.513305
17732222092000: Event_144: system.switch_cpus progress event, total committed:7194802673, progress insts committed: 10263031, IPC: 0.513152
17742222092000: Event_144: system.switch_cpus progress event, total committed:7205062452, progress insts committed: 10259779, IPC: 0.512989
17752222092000: Event_144: system.switch_cpus progress event, total committed:7215439735, progress insts committed: 10377283, IPC: 0.518864
17762222092000: Event_144: system.switch_cpus progress event, total committed:7225709902, progress insts committed: 10270167, IPC: 0.513508
17772222092000: Event_144: system.switch_cpus progress event, total committed:7235973399, progress insts committed: 10263497, IPC: 0.513175
17782222092000: Event_144: system.switch_cpus progress event, total committed:7246345835, progress insts committed: 10372436, IPC: 0.518622
17792222092000: Event_144: system.switch_cpus progress event, total committed:7256608978, progress insts committed: 10263143, IPC: 0.513157
17802222092000: Event_144: system.switch_cpus progress event, total committed:7266335035, progress insts committed: 9726057, IPC: 0.486303
