
---------- Begin Simulation Statistics ----------
final_tick                               6844907666500                       # Number of ticks from beginning of simulation (restored from checkpoints and never reset)
host_inst_rate                                 276834                       # Simulator instruction rate (inst/s)
host_mem_usage                               29708596                       # Number of bytes of host memory used
host_op_rate                                   292586                       # Simulator op (including micro ops) rate (op/s)
host_seconds                                  7224.54                       # Real time elapsed on the host
host_tick_rate                              178929762                       # Simulator tick rate (ticks/s)
sim_freq                                 1000000000000                       # Frequency of simulated ticks
sim_insts                                  2000000027                       # Number of instructions simulated
sim_ops                                    2113800153                       # Number of ops (including micro ops) simulated
sim_seconds                                  1.292686                       # Number of seconds simulated
sim_ticks                                1292685573000                       # Number of ticks simulated
system.cpu.committedInsts                          20                       # Number of instructions committed
system.cpu.committedOps                            20                       # Number of ops (including micro ops) committed
system.cpu.dcache.MSHRs.leapFrogMisses        2360727                       # number of false blocks from MSHR
system.cpu.icache.MSHRs.leapFrogMisses              0                       # number of false blocks from MSHR
system.cpu.idle_fraction                            0                       # Percentage of idle cycles
system.cpu.not_idle_fraction                        1                       # Percentage of non-idle cycles
system.cpu.numCycles                               20                       # number of cpu cycles simulated
system.cpu.numWorkItemsCompleted                    0                       # number of work items this cpu completed
system.cpu.numWorkItemsStarted                      0                       # number of work items this cpu started
system.cpu.num_busy_cycles                         20                       # Number of busy cycles
system.cpu.num_conditional_control_insts            0                       # number of instructions that are conditional controls
system.cpu.num_fp_alu_accesses                      0                       # Number of float alu accesses
system.cpu.num_fp_insts                             0                       # number of float instructions
system.cpu.num_fp_register_reads                    0                       # number of times the floating registers were read
system.cpu.num_fp_register_writes                   0                       # number of times the floating registers were written
system.cpu.num_func_calls                           0                       # number of times a function call or return occured
system.cpu.num_idle_cycles                          0                       # Number of idle cycles
system.cpu.num_int_alu_accesses                     3                       # Number of integer alu accesses
system.cpu.num_int_insts                            3                       # number of integer instructions
system.cpu.num_int_register_reads                  60                       # number of times the integer registers were read
system.cpu.num_int_register_writes                 17                       # number of times the integer registers were written
system.cpu.num_load_insts                           2                       # Number of load instructions
system.cpu.num_mem_refs                             3                       # number of memory refs
system.cpu.num_store_insts                          1                       # Number of store instructions
system.cpu.num_vec_alu_accesses                    20                       # Number of vector alu accesses
system.cpu.num_vec_insts                           20                       # number of vector instructions
system.cpu.num_vec_register_reads                  35                       # number of times the vector registers were read
system.cpu.num_vec_register_writes                 19                       # number of times the vector registers were written
system.cpu.op_class::No_OpClass                     0      0.00%      0.00% # Class of executed instruction
system.cpu.op_class::IntAlu                         0      0.00%      0.00% # Class of executed instruction
system.cpu.op_class::IntMult                        0      0.00%      0.00% # Class of executed instruction
system.cpu.op_class::IntDiv                         0      0.00%      0.00% # Class of executed instruction
system.cpu.op_class::FloatAdd                       5     25.00%     25.00% # Class of executed instruction
system.cpu.op_class::FloatCmp                       0      0.00%     25.00% # Class of executed instruction
system.cpu.op_class::FloatCvt                       0      0.00%     25.00% # Class of executed instruction
system.cpu.op_class::FloatMult                     12     60.00%     85.00% # Class of executed instruction
system.cpu.op_class::FloatMultAcc                   0      0.00%     85.00% # Class of executed instruction
system.cpu.op_class::FloatDiv                       0      0.00%     85.00% # Class of executed instruction
system.cpu.op_class::FloatMisc                      0      0.00%     85.00% # Class of executed instruction
system.cpu.op_class::FloatSqrt                      0      0.00%     85.00% # Class of executed instruction
system.cpu.op_class::SimdAdd                        0      0.00%     85.00% # Class of executed instruction
system.cpu.op_class::SimdAddAcc                     0      0.00%     85.00% # Class of executed instruction
system.cpu.op_class::SimdAlu                        0      0.00%     85.00% # Class of executed instruction
system.cpu.op_class::SimdCmp                        0      0.00%     85.00% # Class of executed instruction
system.cpu.op_class::SimdCvt                        0      0.00%     85.00% # Class of executed instruction
system.cpu.op_class::SimdMisc                       0      0.00%     85.00% # Class of executed instruction
system.cpu.op_class::SimdMult                       0      0.00%     85.00% # Class of executed instruction
system.cpu.op_class::SimdMultAcc                    0      0.00%     85.00% # Class of executed instruction
system.cpu.op_class::SimdShift                      0      0.00%     85.00% # Class of executed instruction
system.cpu.op_class::SimdShiftAcc                   0      0.00%     85.00% # Class of executed instruction
system.cpu.op_class::SimdDiv                        0      0.00%     85.00% # Class of executed instruction
system.cpu.op_class::SimdSqrt                       0      0.00%     85.00% # Class of executed instruction
system.cpu.op_class::SimdFloatAdd                   0      0.00%     85.00% # Class of executed instruction
system.cpu.op_class::SimdFloatAlu                   0      0.00%     85.00% # Class of executed instruction
system.cpu.op_class::SimdFloatCmp                   0      0.00%     85.00% # Class of executed instruction
system.cpu.op_class::SimdFloatCvt                   0      0.00%     85.00% # Class of executed instruction
system.cpu.op_class::SimdFloatDiv                   0      0.00%     85.00% # Class of executed instruction
system.cpu.op_class::SimdFloatMisc                  0      0.00%     85.00% # Class of executed instruction
system.cpu.op_class::SimdFloatMult                  0      0.00%     85.00% # Class of executed instruction
system.cpu.op_class::SimdFloatMultAcc               0      0.00%     85.00% # Class of executed instruction
system.cpu.op_class::SimdFloatSqrt                  0      0.00%     85.00% # Class of executed instruction
system.cpu.op_class::SimdReduceAdd                  0      0.00%     85.00% # Class of executed instruction
system.cpu.op_class::SimdReduceAlu                  0      0.00%     85.00% # Class of executed instruction
system.cpu.op_class::SimdReduceCmp                  0      0.00%     85.00% # Class of executed instruction
system.cpu.op_class::SimdFloatReduceAdd             0      0.00%     85.00% # Class of executed instruction
system.cpu.op_class::SimdFloatReduceCmp             0      0.00%     85.00% # Class of executed instruction
system.cpu.op_class::SimdAes                        0      0.00%     85.00% # Class of executed instruction
system.cpu.op_class::SimdAesMix                     0      0.00%     85.00% # Class of executed instruction
system.cpu.op_class::SimdSha1Hash                   0      0.00%     85.00% # Class of executed instruction
system.cpu.op_class::SimdSha1Hash2                  0      0.00%     85.00% # Class of executed instruction
system.cpu.op_class::SimdSha256Hash                 0      0.00%     85.00% # Class of executed instruction
system.cpu.op_class::SimdSha256Hash2                0      0.00%     85.00% # Class of executed instruction
system.cpu.op_class::SimdShaSigma2                  0      0.00%     85.00% # Class of executed instruction
system.cpu.op_class::SimdShaSigma3                  0      0.00%     85.00% # Class of executed instruction
system.cpu.op_class::SimdPredAlu                    0      0.00%     85.00% # Class of executed instruction
system.cpu.op_class::MemRead                        2     10.00%     95.00% # Class of executed instruction
system.cpu.op_class::MemWrite                       1      5.00%    100.00% # Class of executed instruction
system.cpu.op_class::FloatMemRead                   0      0.00%    100.00% # Class of executed instruction
system.cpu.op_class::FloatMemWrite                  0      0.00%    100.00% # Class of executed instruction
system.cpu.op_class::IprAccess                      0      0.00%    100.00% # Class of executed instruction
system.cpu.op_class::InstPrefetch                   0      0.00%    100.00% # Class of executed instruction
system.cpu.op_class::total                         20                       # Class of executed instruction
system.cpu.workload.numSyscalls                     0                       # Number of system calls
system.l2.MSHRs.leapFrogMisses                   4056                       # number of false blocks from MSHR
system.membus.snoop_filter.hit_multi_requests            0                       # Number of requests hitting in the snoop filter with multiple (>1) holders of the requested data.
system.membus.snoop_filter.hit_multi_snoops            0                       # Number of snoops hitting in the snoop filter with multiple (>1) holders of the requested data.
system.membus.snoop_filter.hit_single_requests    107349311                       # Number of requests hitting in the snoop filter with a single holder of the requested data.
system.membus.snoop_filter.hit_single_snoops            0                       # Number of snoops hitting in the snoop filter with a single holder of the requested data.
system.membus.snoop_filter.tot_requests     214729151                       # Total number of requests made to the snoop filter.
system.membus.snoop_filter.tot_snoops               0                       # Total number of snoops made to the snoop filter.
system.switch_cpus.cc_regfile_reads          33346437                       # number of cc regfile reads
system.switch_cpus.cc_regfile_writes         33346995                       # number of cc regfile writes
system.switch_cpus.committedInsts          2000000007                       # Number of Instructions Simulated
system.switch_cpus.committedOps            2113800133                       # Number of Ops (including micro ops) Simulated
system.switch_cpus.cpi                       1.292686                       # CPI: Cycles Per Instruction
system.switch_cpus.cpi_total                 1.292686                       # CPI: Total CPI of All Threads
system.switch_cpus.idleCycles                    5945                       # Total number of cycles that the CPU has spent unscheduled due to idling
system.switch_cpus.iew.branchMispredicts      1136374                       # Number of branch mispredicts detected at execute
system.switch_cpus.iew.exec_branches         27547154                       # Number of branches executed
system.switch_cpus.iew.exec_nop                     0                       # number of nop insts executed
system.switch_cpus.iew.exec_rate             1.395366                       # Inst execution rate
system.switch_cpus.iew.exec_refs           2151609204                       # number of memory reference insts executed
system.switch_cpus.iew.exec_stores          294263085                       # Number of stores executed
system.switch_cpus.iew.exec_swp                     0                       # number of swp insts executed
system.switch_cpus.iew.iewBlockCycles       693938826                       # Number of cycles IEW is blocking
system.switch_cpus.iew.iewDispLoadInsts     396910577                       # Number of dispatched load instructions
system.switch_cpus.iew.iewDispNonSpecInsts            0                       # Number of dispatched non-speculative instructions
system.switch_cpus.iew.iewDispSquashedInsts           63                       # Number of squashed instructions skipped by dispatch
system.switch_cpus.iew.iewDispStoreInsts    306409335                       # Number of dispatched store instructions
system.switch_cpus.iew.iewDispatchedInsts   2181862243                       # Number of instructions dispatched to IQ
system.switch_cpus.iew.iewExecLoadInsts    1857346119                       # Number of load instructions executed
system.switch_cpus.iew.iewExecSquashedInsts      2943116                       # Number of squashed instructions skipped in execute
system.switch_cpus.iew.iewExecutedInsts    3607539239                       # Number of executed instructions
system.switch_cpus.iew.iewIQFullEvents        9619824                       # Number of times the IQ has become full, causing a stall
system.switch_cpus.iew.iewIdleCycles                0                       # Number of cycles IEW is idle
system.switch_cpus.iew.iewLSQFullEvents     216925436                       # Number of times the LSQ has become full, causing a stall
system.switch_cpus.iew.iewSquashCycles        1141026                       # Number of cycles IEW is squashing
system.switch_cpus.iew.iewUnblockCycles     235291523                       # Number of cycles IEW is unblocking
system.switch_cpus.iew.memOrderViolationEvents         9971                       # Number of memory order violations
system.switch_cpus.iew.predictedNotTakenIncorrect       516403                       # Number of branches that were predicted not taken incorrectly
system.switch_cpus.iew.predictedTakenIncorrect       619971                       # Number of branches that were predicted taken incorrectly
system.switch_cpus.iew.wb_consumers        2302817578                       # num instructions consuming a value
system.switch_cpus.iew.wb_count            2135193330                       # cumulative count of insts written-back
system.switch_cpus.iew.wb_fanout             0.706875                       # average fanout of values written-back
system.switch_cpus.iew.wb_producers        1627804335                       # num instructions producing a value
system.switch_cpus.iew.wb_rate               0.825875                       # insts written-back per cycle
system.switch_cpus.iew.wb_sent             2135891205                       # cumulative count of insts sent to commit
system.switch_cpus.int_regfile_reads       2368250776                       # number of integer regfile reads
system.switch_cpus.int_regfile_writes       189117562                       # number of integer regfile writes
system.switch_cpus.ipc                       0.773583                       # IPC: Instructions Per Cycle
system.switch_cpus.ipc_total                 0.773583                       # IPC: Total IPC of All Threads
system.switch_cpus.iq.FU_type_0::No_OpClass           11      0.00%      0.00% # Type of FU issued
system.switch_cpus.iq.FU_type_0::IntAlu     205782409      5.70%      5.70% # Type of FU issued
system.switch_cpus.iq.FU_type_0::IntMult            0      0.00%      5.70% # Type of FU issued
system.switch_cpus.iq.FU_type_0::IntDiv             0      0.00%      5.70% # Type of FU issued
system.switch_cpus.iq.FU_type_0::FloatAdd    760821957     21.07%     26.77% # Type of FU issued
system.switch_cpus.iq.FU_type_0::FloatCmp            0      0.00%     26.77% # Type of FU issued
system.switch_cpus.iq.FU_type_0::FloatCvt            0      0.00%     26.77% # Type of FU issued
system.switch_cpus.iq.FU_type_0::FloatMult    454153198     12.58%     39.35% # Type of FU issued
system.switch_cpus.iq.FU_type_0::FloatMultAcc            0      0.00%     39.35% # Type of FU issued
system.switch_cpus.iq.FU_type_0::FloatDiv     14633154      0.41%     39.76% # Type of FU issued
system.switch_cpus.iq.FU_type_0::FloatMisc     20486826      0.57%     40.32% # Type of FU issued
system.switch_cpus.iq.FU_type_0::FloatSqrt            0      0.00%     40.32% # Type of FU issued
system.switch_cpus.iq.FU_type_0::SimdAdd            0      0.00%     40.32% # Type of FU issued
system.switch_cpus.iq.FU_type_0::SimdAddAcc            0      0.00%     40.32% # Type of FU issued
system.switch_cpus.iq.FU_type_0::SimdAlu            0      0.00%     40.32% # Type of FU issued
system.switch_cpus.iq.FU_type_0::SimdCmp            0      0.00%     40.32% # Type of FU issued
system.switch_cpus.iq.FU_type_0::SimdCvt            0      0.00%     40.32% # Type of FU issued
system.switch_cpus.iq.FU_type_0::SimdMisc        77243      0.00%     40.33% # Type of FU issued
system.switch_cpus.iq.FU_type_0::SimdMult            0      0.00%     40.33% # Type of FU issued
system.switch_cpus.iq.FU_type_0::SimdMultAcc            0      0.00%     40.33% # Type of FU issued
system.switch_cpus.iq.FU_type_0::SimdShift            0      0.00%     40.33% # Type of FU issued
system.switch_cpus.iq.FU_type_0::SimdShiftAcc            0      0.00%     40.33% # Type of FU issued
system.switch_cpus.iq.FU_type_0::SimdDiv            0      0.00%     40.33% # Type of FU issued
system.switch_cpus.iq.FU_type_0::SimdSqrt            0      0.00%     40.33% # Type of FU issued
system.switch_cpus.iq.FU_type_0::SimdFloatAdd            0      0.00%     40.33% # Type of FU issued
system.switch_cpus.iq.FU_type_0::SimdFloatAlu            0      0.00%     40.33% # Type of FU issued
system.switch_cpus.iq.FU_type_0::SimdFloatCmp            0      0.00%     40.33% # Type of FU issued
system.switch_cpus.iq.FU_type_0::SimdFloatCvt            0      0.00%     40.33% # Type of FU issued
system.switch_cpus.iq.FU_type_0::SimdFloatDiv            0      0.00%     40.33% # Type of FU issued
system.switch_cpus.iq.FU_type_0::SimdFloatMisc            0      0.00%     40.33% # Type of FU issued
system.switch_cpus.iq.FU_type_0::SimdFloatMult            0      0.00%     40.33% # Type of FU issued
system.switch_cpus.iq.FU_type_0::SimdFloatMultAcc            0      0.00%     40.33% # Type of FU issued
system.switch_cpus.iq.FU_type_0::SimdFloatSqrt            0      0.00%     40.33% # Type of FU issued
system.switch_cpus.iq.FU_type_0::SimdReduceAdd            0      0.00%     40.33% # Type of FU issued
system.switch_cpus.iq.FU_type_0::SimdReduceAlu            0      0.00%     40.33% # Type of FU issued
system.switch_cpus.iq.FU_type_0::SimdReduceCmp            0      0.00%     40.33% # Type of FU issued
system.switch_cpus.iq.FU_type_0::SimdFloatReduceAdd            0      0.00%     40.33% # Type of FU issued
system.switch_cpus.iq.FU_type_0::SimdFloatReduceCmp            0      0.00%     40.33% # Type of FU issued
system.switch_cpus.iq.FU_type_0::SimdAes            0      0.00%     40.33% # Type of FU issued
system.switch_cpus.iq.FU_type_0::SimdAesMix            0      0.00%     40.33% # Type of FU issued
system.switch_cpus.iq.FU_type_0::SimdSha1Hash            0      0.00%     40.33% # Type of FU issued
system.switch_cpus.iq.FU_type_0::SimdSha1Hash2            0      0.00%     40.33% # Type of FU issued
system.switch_cpus.iq.FU_type_0::SimdSha256Hash            0      0.00%     40.33% # Type of FU issued
system.switch_cpus.iq.FU_type_0::SimdSha256Hash2            0      0.00%     40.33% # Type of FU issued
system.switch_cpus.iq.FU_type_0::SimdShaSigma2            0      0.00%     40.33% # Type of FU issued
system.switch_cpus.iq.FU_type_0::SimdShaSigma3            0      0.00%     40.33% # Type of FU issued
system.switch_cpus.iq.FU_type_0::SimdPredAlu            0      0.00%     40.33% # Type of FU issued
system.switch_cpus.iq.FU_type_0::MemRead   1860062179     51.52%     91.84% # Type of FU issued
system.switch_cpus.iq.FU_type_0::MemWrite    294465378      8.16%    100.00% # Type of FU issued
system.switch_cpus.iq.FU_type_0::FloatMemRead            0      0.00%    100.00% # Type of FU issued
system.switch_cpus.iq.FU_type_0::FloatMemWrite            0      0.00%    100.00% # Type of FU issued
system.switch_cpus.iq.FU_type_0::IprAccess            0      0.00%    100.00% # Type of FU issued
system.switch_cpus.iq.FU_type_0::InstPrefetch            0      0.00%    100.00% # Type of FU issued
system.switch_cpus.iq.FU_type_0::total     3610482355                       # Type of FU issued
system.switch_cpus.iq.fp_alu_accesses               0                       # Number of floating point alu accesses
system.switch_cpus.iq.fp_inst_queue_reads            0                       # Number of floating instruction queue reads
system.switch_cpus.iq.fp_inst_queue_wakeup_accesses            0                       # Number of floating instruction queue wakeup accesses
system.switch_cpus.iq.fp_inst_queue_writes            0                       # Number of floating instruction queue writes
system.switch_cpus.iq.fu_busy_cnt           709350913                       # FU busy when requested
system.switch_cpus.iq.fu_busy_rate           0.196470                       # FU busy rate (busy events/executed inst)
system.switch_cpus.iq.fu_full::No_OpClass            0      0.00%      0.00% # attempts to use FU when none available
system.switch_cpus.iq.fu_full::IntAlu             137      0.00%      0.00% # attempts to use FU when none available
system.switch_cpus.iq.fu_full::IntMult              0      0.00%      0.00% # attempts to use FU when none available
system.switch_cpus.iq.fu_full::IntDiv               0      0.00%      0.00% # attempts to use FU when none available
system.switch_cpus.iq.fu_full::FloatAdd      33796883      4.76%      4.76% # attempts to use FU when none available
system.switch_cpus.iq.fu_full::FloatCmp             0      0.00%      4.76% # attempts to use FU when none available
system.switch_cpus.iq.fu_full::FloatCvt             0      0.00%      4.76% # attempts to use FU when none available
system.switch_cpus.iq.fu_full::FloatMult    224785733     31.69%     36.45% # attempts to use FU when none available
system.switch_cpus.iq.fu_full::FloatMultAcc            0      0.00%     36.45% # attempts to use FU when none available
system.switch_cpus.iq.fu_full::FloatDiv      58532287      8.25%     44.70% # attempts to use FU when none available
system.switch_cpus.iq.fu_full::FloatMisc     41525967      5.85%     50.56% # attempts to use FU when none available
system.switch_cpus.iq.fu_full::FloatSqrt            0      0.00%     50.56% # attempts to use FU when none available
system.switch_cpus.iq.fu_full::SimdAdd              0      0.00%     50.56% # attempts to use FU when none available
system.switch_cpus.iq.fu_full::SimdAddAcc            0      0.00%     50.56% # attempts to use FU when none available
system.switch_cpus.iq.fu_full::SimdAlu              0      0.00%     50.56% # attempts to use FU when none available
system.switch_cpus.iq.fu_full::SimdCmp              0      0.00%     50.56% # attempts to use FU when none available
system.switch_cpus.iq.fu_full::SimdCvt              0      0.00%     50.56% # attempts to use FU when none available
system.switch_cpus.iq.fu_full::SimdMisc             0      0.00%     50.56% # attempts to use FU when none available
system.switch_cpus.iq.fu_full::SimdMult             0      0.00%     50.56% # attempts to use FU when none available
system.switch_cpus.iq.fu_full::SimdMultAcc            0      0.00%     50.56% # attempts to use FU when none available
system.switch_cpus.iq.fu_full::SimdShift            0      0.00%     50.56% # attempts to use FU when none available
system.switch_cpus.iq.fu_full::SimdShiftAcc            0      0.00%     50.56% # attempts to use FU when none available
system.switch_cpus.iq.fu_full::SimdDiv              0      0.00%     50.56% # attempts to use FU when none available
system.switch_cpus.iq.fu_full::SimdSqrt             0      0.00%     50.56% # attempts to use FU when none available
system.switch_cpus.iq.fu_full::SimdFloatAdd            0      0.00%     50.56% # attempts to use FU when none available
system.switch_cpus.iq.fu_full::SimdFloatAlu            0      0.00%     50.56% # attempts to use FU when none available
system.switch_cpus.iq.fu_full::SimdFloatCmp            0      0.00%     50.56% # attempts to use FU when none available
system.switch_cpus.iq.fu_full::SimdFloatCvt            0      0.00%     50.56% # attempts to use FU when none available
system.switch_cpus.iq.fu_full::SimdFloatDiv            0      0.00%     50.56% # attempts to use FU when none available
system.switch_cpus.iq.fu_full::SimdFloatMisc            0      0.00%     50.56% # attempts to use FU when none available
system.switch_cpus.iq.fu_full::SimdFloatMult            0      0.00%     50.56% # attempts to use FU when none available
system.switch_cpus.iq.fu_full::SimdFloatMultAcc            0      0.00%     50.56% # attempts to use FU when none available
system.switch_cpus.iq.fu_full::SimdFloatSqrt            0      0.00%     50.56% # attempts to use FU when none available
system.switch_cpus.iq.fu_full::SimdReduceAdd            0      0.00%     50.56% # attempts to use FU when none available
system.switch_cpus.iq.fu_full::SimdReduceAlu            0      0.00%     50.56% # attempts to use FU when none available
system.switch_cpus.iq.fu_full::SimdReduceCmp            0      0.00%     50.56% # attempts to use FU when none available
system.switch_cpus.iq.fu_full::SimdFloatReduceAdd            0      0.00%     50.56% # attempts to use FU when none available
system.switch_cpus.iq.fu_full::SimdFloatReduceCmp            0      0.00%     50.56% # attempts to use FU when none available
system.switch_cpus.iq.fu_full::SimdAes              0      0.00%     50.56% # attempts to use FU when none available
system.switch_cpus.iq.fu_full::SimdAesMix            0      0.00%     50.56% # attempts to use FU when none available
system.switch_cpus.iq.fu_full::SimdSha1Hash            0      0.00%     50.56% # attempts to use FU when none available
system.switch_cpus.iq.fu_full::SimdSha1Hash2            0      0.00%     50.56% # attempts to use FU when none available
system.switch_cpus.iq.fu_full::SimdSha256Hash            0      0.00%     50.56% # attempts to use FU when none available
system.switch_cpus.iq.fu_full::SimdSha256Hash2            0      0.00%     50.56% # attempts to use FU when none available
system.switch_cpus.iq.fu_full::SimdShaSigma2            0      0.00%     50.56% # attempts to use FU when none available
system.switch_cpus.iq.fu_full::SimdShaSigma3            0      0.00%     50.56% # attempts to use FU when none available
system.switch_cpus.iq.fu_full::SimdPredAlu            0      0.00%     50.56% # attempts to use FU when none available
system.switch_cpus.iq.fu_full::MemRead      331322580     46.71%     97.27% # attempts to use FU when none available
system.switch_cpus.iq.fu_full::MemWrite      19387326      2.73%    100.00% # attempts to use FU when none available
system.switch_cpus.iq.fu_full::FloatMemRead            0      0.00%    100.00% # attempts to use FU when none available
system.switch_cpus.iq.fu_full::FloatMemWrite            0      0.00%    100.00% # attempts to use FU when none available
system.switch_cpus.iq.fu_full::IprAccess            0      0.00%    100.00% # attempts to use FU when none available
system.switch_cpus.iq.fu_full::InstPrefetch            0      0.00%    100.00% # attempts to use FU when none available
system.switch_cpus.iq.int_alu_accesses      279997210                       # Number of integer alu accesses
system.switch_cpus.iq.int_inst_queue_reads   3128151221                       # Number of integer instruction queue reads
system.switch_cpus.iq.int_inst_queue_wakeup_accesses    216663429                       # Number of integer instruction queue wakeup accesses
system.switch_cpus.iq.int_inst_queue_writes    230244068                       # Number of integer instruction queue writes
system.switch_cpus.iq.iqInstsAdded         2181862243                       # Number of instructions added to the IQ (excludes non-spec)
system.switch_cpus.iq.iqInstsIssued        3610482355                       # Number of instructions issued
system.switch_cpus.iq.iqSquashedInstsExamined     68062088                       # Number of squashed instructions iterated over during squash; mainly for profiling
system.switch_cpus.iq.iqSquashedInstsIssued      5471843                       # Number of squashed instructions issued
system.switch_cpus.iq.iqSquashedOperandsExamined    196661011                       # Number of squashed operands that are examined and possibly removed from graph
system.switch_cpus.iq.issued_per_cycle::samples   2585365181                       # Number of insts issued each cycle
system.switch_cpus.iq.issued_per_cycle::mean     1.396508                       # Number of insts issued each cycle
system.switch_cpus.iq.issued_per_cycle::stdev     2.084557                       # Number of insts issued each cycle
system.switch_cpus.iq.issued_per_cycle::underflows            0      0.00%      0.00% # Number of insts issued each cycle
system.switch_cpus.iq.issued_per_cycle::0   1609537161     62.26%     62.26% # Number of insts issued each cycle
system.switch_cpus.iq.issued_per_cycle::1    139135112      5.38%     67.64% # Number of insts issued each cycle
system.switch_cpus.iq.issued_per_cycle::2    115446881      4.47%     72.10% # Number of insts issued each cycle
system.switch_cpus.iq.issued_per_cycle::3    106014677      4.10%     76.20% # Number of insts issued each cycle
system.switch_cpus.iq.issued_per_cycle::4    394225094     15.25%     91.45% # Number of insts issued each cycle
system.switch_cpus.iq.issued_per_cycle::5     74066820      2.86%     94.32% # Number of insts issued each cycle
system.switch_cpus.iq.issued_per_cycle::6     81556975      3.15%     97.47% # Number of insts issued each cycle
system.switch_cpus.iq.issued_per_cycle::7     37226564      1.44%     98.91% # Number of insts issued each cycle
system.switch_cpus.iq.issued_per_cycle::8     28155897      1.09%    100.00% # Number of insts issued each cycle
system.switch_cpus.iq.issued_per_cycle::overflows            0      0.00%    100.00% # Number of insts issued each cycle
system.switch_cpus.iq.issued_per_cycle::min_value            0                       # Number of insts issued each cycle
system.switch_cpus.iq.issued_per_cycle::max_value            8                       # Number of insts issued each cycle
system.switch_cpus.iq.issued_per_cycle::total   2585365181                       # Number of insts issued each cycle
system.switch_cpus.iq.rate                   1.396504                       # Inst issue rate
system.switch_cpus.iq.vec_alu_accesses     4039836047                       # Number of vector alu accesses
system.switch_cpus.iq.vec_inst_queue_reads   7393001426                       # Number of vector instruction queue reads
system.switch_cpus.iq.vec_inst_queue_wakeup_accesses   1918529901                       # Number of vector instruction queue wakeup accesses
system.switch_cpus.iq.vec_inst_queue_writes   2019690234                       # Number of vector instruction queue writes
system.switch_cpus.memDep0.conflictingLoads     24687563                       # Number of conflicting loads.
system.switch_cpus.memDep0.conflictingStores     10192507                       # Number of conflicting stores.
system.switch_cpus.memDep0.insertedLoads    396910577                       # Number of loads inserted to the mem dependence unit.
system.switch_cpus.memDep0.insertedStores    306409335                       # Number of stores inserted to the mem dependence unit.
system.switch_cpus.misc_regfile_reads     14788695819                       # number of misc regfile reads
system.switch_cpus.misc_regfile_writes     1227680619                       # number of misc regfile writes
system.switch_cpus.numCycles               2585371126                       # number of cpu cycles simulated
system.switch_cpus.numWorkItemsCompleted            0                       # number of work items this cpu completed
system.switch_cpus.numWorkItemsStarted              0                       # number of work items this cpu started
system.switch_cpus.timesIdled                     168                       # Number of times that the entire CPU went into an idle state and unscheduled itself
system.switch_cpus.vec_regfile_reads       2758723985                       # number of vector regfile reads
system.switch_cpus.vec_regfile_writes      1670465528                       # number of vector regfile writes
system.tol2bus.snoop_filter.hit_multi_requests            0                       # Number of requests hitting in the snoop filter with multiple (>1) holders of the requested data.
system.tol2bus.snoop_filter.hit_multi_snoops            0                       # Number of snoops hitting in the snoop filter with multiple (>1) holders of the requested data.
system.tol2bus.snoop_filter.hit_single_requests    186066748                       # Number of requests hitting in the snoop filter with a single holder of the requested data.
system.tol2bus.snoop_filter.hit_single_snoops      3356034                       # Number of snoops hitting in the snoop filter with a single holder of the requested data.
system.tol2bus.snoop_filter.tot_requests    367443682                       # Total number of requests made to the snoop filter.
system.tol2bus.snoop_filter.tot_snoops        3356034                       # Total number of snoops made to the snoop filter.
system.clk_domain.clock                          1000                       # Clock period in ticks
system.cpu.dcache.demand_hits::.cpu.data            1                       # number of demand (read+write) hits
system.cpu.dcache.demand_hits::.switch_cpus.data    409048594                       # number of demand (read+write) hits
system.cpu.dcache.demand_hits::total        409048595                       # number of demand (read+write) hits
system.cpu.dcache.overall_hits::.cpu.data            1                       # number of overall hits
system.cpu.dcache.overall_hits::.switch_cpus.data    409048594                       # number of overall hits
system.cpu.dcache.overall_hits::total       409048595                       # number of overall hits
system.cpu.dcache.demand_misses::.cpu.data            2                       # number of demand (read+write) misses
system.cpu.dcache.demand_misses::.switch_cpus.data    253724167                       # number of demand (read+write) misses
system.cpu.dcache.demand_misses::total      253724169                       # number of demand (read+write) misses
system.cpu.dcache.overall_misses::.cpu.data            2                       # number of overall misses
system.cpu.dcache.overall_misses::.switch_cpus.data    253724167                       # number of overall misses
system.cpu.dcache.overall_misses::total     253724169                       # number of overall misses
system.cpu.dcache.demand_miss_latency::.switch_cpus.data 5896884707498                       # number of demand (read+write) miss cycles
system.cpu.dcache.demand_miss_latency::total 5896884707498                       # number of demand (read+write) miss cycles
system.cpu.dcache.overall_miss_latency::.switch_cpus.data 5896884707498                       # number of overall miss cycles
system.cpu.dcache.overall_miss_latency::total 5896884707498                       # number of overall miss cycles
system.cpu.dcache.demand_accesses::.cpu.data            3                       # number of demand (read+write) accesses
system.cpu.dcache.demand_accesses::.switch_cpus.data    662772761                       # number of demand (read+write) accesses
system.cpu.dcache.demand_accesses::total    662772764                       # number of demand (read+write) accesses
system.cpu.dcache.overall_accesses::.cpu.data            3                       # number of overall (read+write) accesses
system.cpu.dcache.overall_accesses::.switch_cpus.data    662772761                       # number of overall (read+write) accesses
system.cpu.dcache.overall_accesses::total    662772764                       # number of overall (read+write) accesses
system.cpu.dcache.demand_miss_rate::.cpu.data     0.666667                       # miss rate for demand accesses
system.cpu.dcache.demand_miss_rate::.switch_cpus.data     0.382822                       # miss rate for demand accesses
system.cpu.dcache.demand_miss_rate::total     0.382822                       # miss rate for demand accesses
system.cpu.dcache.overall_miss_rate::.cpu.data     0.666667                       # miss rate for overall accesses
system.cpu.dcache.overall_miss_rate::.switch_cpus.data     0.382822                       # miss rate for overall accesses
system.cpu.dcache.overall_miss_rate::total     0.382822                       # miss rate for overall accesses
system.cpu.dcache.demand_avg_miss_latency::.switch_cpus.data 23241.320593                       # average overall miss latency
system.cpu.dcache.demand_avg_miss_latency::total 23241.320410                       # average overall miss latency
system.cpu.dcache.overall_avg_miss_latency::.switch_cpus.data 23241.320593                       # average overall miss latency
system.cpu.dcache.overall_avg_miss_latency::total 23241.320410                       # average overall miss latency
system.cpu.dcache.blocked_cycles::no_mshrs   1511702544                       # number of cycles access was blocked
system.cpu.dcache.blocked_cycles::no_targets            0                       # number of cycles access was blocked
system.cpu.dcache.blocked::no_mshrs         164007470                       # number of cycles access was blocked
system.cpu.dcache.blocked::no_targets               0                       # number of cycles access was blocked
system.cpu.dcache.avg_blocked_cycles::no_mshrs     9.217279                       # average number of cycles each access was blocked
system.cpu.dcache.avg_blocked_cycles::no_targets          nan                       # average number of cycles each access was blocked
system.cpu.dcache.ghost_timestamp_misses      4665649                       # number of times timestamp policy causes a block to be inaccessible
system.cpu.dcache.ghost_commits              26467202                       # number of cache lines moved from ghost to main
system.cpu.dcache.same_leapfrogs              7066525                       # number of times leapfrogging occurs with a shared MSHR request
system.cpu.dcache.writebacks::.writebacks    206094170                       # number of writebacks
system.cpu.dcache.writebacks::total         206094170                       # number of writebacks
system.cpu.dcache.demand_mshr_hits::.switch_cpus.data     67686797                       # number of demand (read+write) MSHR hits
system.cpu.dcache.demand_mshr_hits::total     67686797                       # number of demand (read+write) MSHR hits
system.cpu.dcache.overall_mshr_hits::.switch_cpus.data     67686797                       # number of overall MSHR hits
system.cpu.dcache.overall_mshr_hits::total     67686797                       # number of overall MSHR hits
system.cpu.dcache.demand_mshr_misses::.switch_cpus.data    186037370                       # number of demand (read+write) MSHR misses
system.cpu.dcache.demand_mshr_misses::total    186037370                       # number of demand (read+write) MSHR misses
system.cpu.dcache.overall_mshr_misses::.switch_cpus.data    186037370                       # number of overall MSHR misses
system.cpu.dcache.overall_mshr_misses::total    186037370                       # number of overall MSHR misses
system.cpu.dcache.demand_mshr_miss_latency::.switch_cpus.data 3834237458090                       # number of demand (read+write) MSHR miss cycles
system.cpu.dcache.demand_mshr_miss_latency::total 3834237458090                       # number of demand (read+write) MSHR miss cycles
system.cpu.dcache.overall_mshr_miss_latency::.switch_cpus.data 3834237458090                       # number of overall MSHR miss cycles
system.cpu.dcache.overall_mshr_miss_latency::total 3834237458090                       # number of overall MSHR miss cycles
system.cpu.dcache.demand_mshr_miss_rate::.switch_cpus.data     0.280696                       # mshr miss rate for demand accesses
system.cpu.dcache.demand_mshr_miss_rate::total     0.280696                       # mshr miss rate for demand accesses
system.cpu.dcache.overall_mshr_miss_rate::.switch_cpus.data     0.280696                       # mshr miss rate for overall accesses
system.cpu.dcache.overall_mshr_miss_rate::total     0.280696                       # mshr miss rate for overall accesses
system.cpu.dcache.demand_avg_mshr_miss_latency::.switch_cpus.data 20610.039037                       # average overall mshr miss latency
system.cpu.dcache.demand_avg_mshr_miss_latency::total 20610.039037                       # average overall mshr miss latency
system.cpu.dcache.overall_avg_mshr_miss_latency::.switch_cpus.data 20610.039037                       # average overall mshr miss latency
system.cpu.dcache.overall_avg_mshr_miss_latency::total 20610.039037                       # average overall mshr miss latency
system.cpu.dcache.replacements              179626970                       # number of replacements
system.cpu.dcache.ReadReq_hits::.cpu.data            1                       # number of ReadReq hits
system.cpu.dcache.ReadReq_hits::.switch_cpus.data    270526263                       # number of ReadReq hits
system.cpu.dcache.ReadReq_hits::total       270526264                       # number of ReadReq hits
system.cpu.dcache.ReadReq_misses::.cpu.data            1                       # number of ReadReq misses
system.cpu.dcache.ReadReq_misses::.switch_cpus.data    101189242                       # number of ReadReq misses
system.cpu.dcache.ReadReq_misses::total     101189243                       # number of ReadReq misses
system.cpu.dcache.ReadReq_miss_latency::.switch_cpus.data 2778433223500                       # number of ReadReq miss cycles
system.cpu.dcache.ReadReq_miss_latency::total 2778433223500                       # number of ReadReq miss cycles
system.cpu.dcache.ReadReq_accesses::.cpu.data            2                       # number of ReadReq accesses(hits+misses)
system.cpu.dcache.ReadReq_accesses::.switch_cpus.data    371715505                       # number of ReadReq accesses(hits+misses)
system.cpu.dcache.ReadReq_accesses::total    371715507                       # number of ReadReq accesses(hits+misses)
system.cpu.dcache.ReadReq_miss_rate::.cpu.data     0.500000                       # miss rate for ReadReq accesses
system.cpu.dcache.ReadReq_miss_rate::.switch_cpus.data     0.272222                       # miss rate for ReadReq accesses
system.cpu.dcache.ReadReq_miss_rate::total     0.272222                       # miss rate for ReadReq accesses
system.cpu.dcache.ReadReq_avg_miss_latency::.switch_cpus.data 27457.792633                       # average ReadReq miss latency
system.cpu.dcache.ReadReq_avg_miss_latency::total 27457.792361                       # average ReadReq miss latency
system.cpu.dcache.ReadReq_mshr_hits::.switch_cpus.data     67586009                       # number of ReadReq MSHR hits
system.cpu.dcache.ReadReq_mshr_hits::total     67586009                       # number of ReadReq MSHR hits
system.cpu.dcache.ReadReq_mshr_misses::.switch_cpus.data     33603233                       # number of ReadReq MSHR misses
system.cpu.dcache.ReadReq_mshr_misses::total     33603233                       # number of ReadReq MSHR misses
system.cpu.dcache.ReadReq_mshr_miss_latency::.switch_cpus.data 869860297500                       # number of ReadReq MSHR miss cycles
system.cpu.dcache.ReadReq_mshr_miss_latency::total 869860297500                       # number of ReadReq MSHR miss cycles
system.cpu.dcache.ReadReq_mshr_miss_rate::.switch_cpus.data     0.090400                       # mshr miss rate for ReadReq accesses
system.cpu.dcache.ReadReq_mshr_miss_rate::total     0.090400                       # mshr miss rate for ReadReq accesses
system.cpu.dcache.ReadReq_avg_mshr_miss_latency::.switch_cpus.data 25886.208553                       # average ReadReq mshr miss latency
system.cpu.dcache.ReadReq_avg_mshr_miss_latency::total 25886.208553                       # average ReadReq mshr miss latency
system.cpu.dcache.WriteReq_hits::.switch_cpus.data    138522331                       # number of WriteReq hits
system.cpu.dcache.WriteReq_hits::total      138522331                       # number of WriteReq hits
system.cpu.dcache.WriteReq_misses::.cpu.data            1                       # number of WriteReq misses
system.cpu.dcache.WriteReq_misses::.switch_cpus.data    152534925                       # number of WriteReq misses
system.cpu.dcache.WriteReq_misses::total    152534926                       # number of WriteReq misses
system.cpu.dcache.WriteReq_miss_latency::.switch_cpus.data 3118451483998                       # number of WriteReq miss cycles
system.cpu.dcache.WriteReq_miss_latency::total 3118451483998                       # number of WriteReq miss cycles
system.cpu.dcache.WriteReq_accesses::.cpu.data            1                       # number of WriteReq accesses(hits+misses)
system.cpu.dcache.WriteReq_accesses::.switch_cpus.data    291057256                       # number of WriteReq accesses(hits+misses)
system.cpu.dcache.WriteReq_accesses::total    291057257                       # number of WriteReq accesses(hits+misses)
system.cpu.dcache.WriteReq_miss_rate::.cpu.data            1                       # miss rate for WriteReq accesses
system.cpu.dcache.WriteReq_miss_rate::.switch_cpus.data     0.524072                       # miss rate for WriteReq accesses
system.cpu.dcache.WriteReq_miss_rate::total     0.524072                       # miss rate for WriteReq accesses
system.cpu.dcache.WriteReq_avg_miss_latency::.switch_cpus.data 20444.180138                       # average WriteReq miss latency
system.cpu.dcache.WriteReq_avg_miss_latency::total 20444.180004                       # average WriteReq miss latency
system.cpu.dcache.WriteReq_mshr_hits::.switch_cpus.data       100788                       # number of WriteReq MSHR hits
system.cpu.dcache.WriteReq_mshr_hits::total       100788                       # number of WriteReq MSHR hits
system.cpu.dcache.WriteReq_mshr_misses::.switch_cpus.data    152434137                       # number of WriteReq MSHR misses
system.cpu.dcache.WriteReq_mshr_misses::total    152434137                       # number of WriteReq MSHR misses
system.cpu.dcache.WriteReq_mshr_miss_latency::.switch_cpus.data 2964377160590                       # number of WriteReq MSHR miss cycles
system.cpu.dcache.WriteReq_mshr_miss_latency::total 2964377160590                       # number of WriteReq MSHR miss cycles
system.cpu.dcache.WriteReq_mshr_miss_rate::.switch_cpus.data     0.523726                       # mshr miss rate for WriteReq accesses
system.cpu.dcache.WriteReq_mshr_miss_rate::total     0.523726                       # mshr miss rate for WriteReq accesses
system.cpu.dcache.WriteReq_avg_mshr_miss_latency::.switch_cpus.data 19446.937667                       # average WriteReq mshr miss latency
system.cpu.dcache.WriteReq_avg_mshr_miss_latency::total 19446.937667                       # average WriteReq mshr miss latency
system.cpu.dcache.ghosttags.tagsinuse    -87318019.037649                       # Cycle average of tags in use
system.cpu.dcache.ghosttags.total_refs              0                       # Total number of references to valid blocks.
system.cpu.dcache.ghosttags.sampled_refs            0                       # Sample count of references to valid blocks.
system.cpu.dcache.ghosttags.avg_refs              nan                       # Average number of references to valid blocks.
system.cpu.dcache.ghosttags.warmup_cycle 5552222280500                       # Cycle when the warmup percentage was hit.
system.cpu.dcache.ghosttags.occ_blocks::.switch_cpus.data 16397613.138049                       # Average occupied blocks per requestor
system.cpu.dcache.ghosttags.occ_percent::.switch_cpus.data 512425.410564                       # Average percentage of cache occupancy
system.cpu.dcache.ghosttags.occ_percent::total 512425.410564                       # Average percentage of cache occupancy
system.cpu.dcache.ghosttags.tag_accesses    583045131                       # Number of tag accesses
system.cpu.dcache.ghosttags.data_accesses    583045131                       # Number of data accesses
system.cpu.dcache.ghosttags.repl_invalid            0                       # Number of initial replacements
system.cpu.dcache.ghosttags.repl_valid_tag            0                       # Number of local replacements
system.cpu.dcache.ghosttags.repl_valid_data            0                       # Number of global replacements
system.cpu.dcache.ghosttags.power_state.pwrStateResidencyTicks::UNDEFINED 6844907666500                       # Cumulative time (in ticks) in various power states
system.cpu.dcache.power_state.pwrStateResidencyTicks::UNDEFINED 6844907666500                       # Cumulative time (in ticks) in various power states
system.cpu.dcache.tags.tagsinuse         -14071710.545964                       # Cycle average of tags in use
system.cpu.dcache.tags.total_refs           613904264                       # Total number of references to valid blocks.
system.cpu.dcache.tags.sampled_refs         207838880                       # Sample count of references to valid blocks.
system.cpu.dcache.tags.avg_refs              2.953751                       # Average number of references to valid blocks.
system.cpu.dcache.tags.warmup_cycle      5552222094500                       # Cycle when the warmup percentage was hit.
system.cpu.dcache.tags.occ_blocks::.cpu.data     0.000147                       # Average occupied blocks per requestor
system.cpu.dcache.tags.occ_blocks::.switch_cpus.data -14071710.546110                       # Average occupied blocks per requestor
system.cpu.dcache.tags.occ_percent::.cpu.data     0.000000                       # Average percentage of cache occupancy
system.cpu.dcache.tags.occ_percent::.switch_cpus.data -27483.809660                       # Average percentage of cache occupancy
system.cpu.dcache.tags.occ_percent::total -27483.809660                       # Average percentage of cache occupancy
system.cpu.dcache.tags.occ_task_id_blocks::1024          512                       # Occupied blocks per task id
system.cpu.dcache.tags.age_task_id_blocks_1024::0          508                       # Occupied blocks per task id
system.cpu.dcache.tags.age_task_id_blocks_1024::1            3                       # Occupied blocks per task id
system.cpu.dcache.tags.age_task_id_blocks_1024::2            1                       # Occupied blocks per task id
system.cpu.dcache.tags.occ_task_id_percent::1024            1                       # Percentage of cache occupancy per task id
system.cpu.dcache.tags.tag_accesses        5481809592                       # Number of tag accesses
system.cpu.dcache.tags.data_accesses       5481809592                       # Number of data accesses
system.cpu.dcache.tags.repl_invalid                 0                       # Number of initial replacements
system.cpu.dcache.tags.repl_valid_tag               0                       # Number of local replacements
system.cpu.dcache.tags.repl_valid_data              0                       # Number of global replacements
system.cpu.dcache.tags.power_state.pwrStateResidencyTicks::UNDEFINED 6844907666500                       # Cumulative time (in ticks) in various power states
system.cpu.dtb.instHits                             0                       # ITB inst hits
system.cpu.dtb.instMisses                           0                       # ITB inst misses
system.cpu.dtb.readHits                             0                       # DTB read hits
system.cpu.dtb.readMisses                           0                       # DTB read misses
system.cpu.dtb.writeHits                            0                       # DTB write hits
system.cpu.dtb.writeMisses                          0                       # DTB write misses
system.cpu.dtb.inserts                              0                       # Number of times an entry is inserted into the TLB
system.cpu.dtb.flushTlb                             2                       # Number of times complete TLB was flushed
system.cpu.dtb.flushTlbMva                          0                       # Number of times TLB was flushed by MVA
system.cpu.dtb.flushTlbMvaAsid                      0                       # Number of times TLB was flushed by MVA & ASID
system.cpu.dtb.flushTlbAsid                         0                       # Number of times TLB was flushed by ASID
system.cpu.dtb.flushedEntries                       0                       # Number of entries that have been flushed from TLB
system.cpu.dtb.alignFaults                          0                       # Number of TLB faults due to alignment restrictions
system.cpu.dtb.prefetchFaults                       0                       # Number of TLB faults due to prefetch
system.cpu.dtb.domainFaults                         0                       # Number of TLB faults due to domain restrictions
system.cpu.dtb.permsFaults                          0                       # Number of TLB faults due to permissions restrictions
system.cpu.dtb.readAccesses                         0                       # DTB read accesses
system.cpu.dtb.writeAccesses                        0                       # DTB write accesses
system.cpu.dtb.instAccesses                         0                       # ITB inst accesses
system.cpu.dtb.hits                                 0                       # Total TLB (inst and data) hits
system.cpu.dtb.misses                               0                       # Total TLB (inst and data) misses
system.cpu.dtb.accesses                             0                       # Total TLB (inst and data) accesses
system.cpu.dtb.stage2_mmu.stage2_tlb.instHits            0                       # ITB inst hits
system.cpu.dtb.stage2_mmu.stage2_tlb.instMisses            0                       # ITB inst misses
system.cpu.dtb.stage2_mmu.stage2_tlb.readHits            0                       # DTB read hits
system.cpu.dtb.stage2_mmu.stage2_tlb.readMisses            0                       # DTB read misses
system.cpu.dtb.stage2_mmu.stage2_tlb.writeHits            0                       # DTB write hits
system.cpu.dtb.stage2_mmu.stage2_tlb.writeMisses            0                       # DTB write misses
system.cpu.dtb.stage2_mmu.stage2_tlb.inserts            0                       # Number of times an entry is inserted into the TLB
system.cpu.dtb.stage2_mmu.stage2_tlb.flushTlb            0                       # Number of times complete TLB was flushed
system.cpu.dtb.stage2_mmu.stage2_tlb.flushTlbMva            0                       # Number of times TLB was flushed by MVA
system.cpu.dtb.stage2_mmu.stage2_tlb.flushTlbMvaAsid            0                       # Number of times TLB was flushed by MVA & ASID
system.cpu.dtb.stage2_mmu.stage2_tlb.flushTlbAsid            0                       # Number of times TLB was flushed by ASID
system.cpu.dtb.stage2_mmu.stage2_tlb.flushedEntries            0                       # Number of entries that have been flushed from TLB
system.cpu.dtb.stage2_mmu.stage2_tlb.alignFaults            0                       # Number of TLB faults due to alignment restrictions
system.cpu.dtb.stage2_mmu.stage2_tlb.prefetchFaults            0                       # Number of TLB faults due to prefetch
system.cpu.dtb.stage2_mmu.stage2_tlb.domainFaults            0                       # Number of TLB faults due to domain restrictions
system.cpu.dtb.stage2_mmu.stage2_tlb.permsFaults            0                       # Number of TLB faults due to permissions restrictions
system.cpu.dtb.stage2_mmu.stage2_tlb.readAccesses            0                       # DTB read accesses
system.cpu.dtb.stage2_mmu.stage2_tlb.writeAccesses            0                       # DTB write accesses
system.cpu.dtb.stage2_mmu.stage2_tlb.instAccesses            0                       # ITB inst accesses
system.cpu.dtb.stage2_mmu.stage2_tlb.hits            0                       # Total TLB (inst and data) hits
system.cpu.dtb.stage2_mmu.stage2_tlb.misses            0                       # Total TLB (inst and data) misses
system.cpu.dtb.stage2_mmu.stage2_tlb.accesses            0                       # Total TLB (inst and data) accesses
system.cpu.dtb.stage2_mmu.stage2_tlb.walker.walks            0                       # Table walker walks requested
system.cpu.dtb.stage2_mmu.stage2_tlb.walker.requestOrigin_Requested::Data            0                       # Table walker requests started/completed, data/inst
system.cpu.dtb.stage2_mmu.stage2_tlb.walker.requestOrigin_Requested::Inst            0                       # Table walker requests started/completed, data/inst
system.cpu.dtb.stage2_mmu.stage2_tlb.walker.requestOrigin_Requested::total            0                       # Table walker requests started/completed, data/inst
system.cpu.dtb.stage2_mmu.stage2_tlb.walker.requestOrigin_Completed::Data            0                       # Table walker requests started/completed, data/inst
system.cpu.dtb.stage2_mmu.stage2_tlb.walker.requestOrigin_Completed::Inst            0                       # Table walker requests started/completed, data/inst
system.cpu.dtb.stage2_mmu.stage2_tlb.walker.requestOrigin_Completed::total            0                       # Table walker requests started/completed, data/inst
system.cpu.dtb.stage2_mmu.stage2_tlb.walker.requestOrigin::total            0                       # Table walker requests started/completed, data/inst
system.cpu.dtb.stage2_mmu.stage2_tlb.walker.power_state.pwrStateResidencyTicks::UNDEFINED 6844907666500                       # Cumulative time (in ticks) in various power states
system.cpu.dtb.walker.walks                         0                       # Table walker walks requested
system.cpu.dtb.walker.requestOrigin_Requested::Data            0                       # Table walker requests started/completed, data/inst
system.cpu.dtb.walker.requestOrigin_Requested::Inst            0                       # Table walker requests started/completed, data/inst
system.cpu.dtb.walker.requestOrigin_Requested::total            0                       # Table walker requests started/completed, data/inst
system.cpu.dtb.walker.requestOrigin_Completed::Data            0                       # Table walker requests started/completed, data/inst
system.cpu.dtb.walker.requestOrigin_Completed::Inst            0                       # Table walker requests started/completed, data/inst
system.cpu.dtb.walker.requestOrigin_Completed::total            0                       # Table walker requests started/completed, data/inst
system.cpu.dtb.walker.requestOrigin::total            0                       # Table walker requests started/completed, data/inst
system.cpu.dtb.walker.power_state.pwrStateResidencyTicks::UNDEFINED 6844907666500                       # Cumulative time (in ticks) in various power states
system.cpu.icache.demand_hits::.cpu.inst           18                       # number of demand (read+write) hits
system.cpu.icache.demand_hits::.switch_cpus.inst    154524695                       # number of demand (read+write) hits
system.cpu.icache.demand_hits::total        154524713                       # number of demand (read+write) hits
system.cpu.icache.overall_hits::.cpu.inst           18                       # number of overall hits
system.cpu.icache.overall_hits::.switch_cpus.inst    154524695                       # number of overall hits
system.cpu.icache.overall_hits::total       154524713                       # number of overall hits
system.cpu.icache.demand_misses::.cpu.inst            2                       # number of demand (read+write) misses
system.cpu.icache.demand_misses::.switch_cpus.inst           67                       # number of demand (read+write) misses
system.cpu.icache.demand_misses::total             69                       # number of demand (read+write) misses
system.cpu.icache.overall_misses::.cpu.inst            2                       # number of overall misses
system.cpu.icache.overall_misses::.switch_cpus.inst           67                       # number of overall misses
system.cpu.icache.overall_misses::total            69                       # number of overall misses
system.cpu.icache.demand_miss_latency::.switch_cpus.inst      6094500                       # number of demand (read+write) miss cycles
system.cpu.icache.demand_miss_latency::total      6094500                       # number of demand (read+write) miss cycles
system.cpu.icache.overall_miss_latency::.switch_cpus.inst      6094500                       # number of overall miss cycles
system.cpu.icache.overall_miss_latency::total      6094500                       # number of overall miss cycles
system.cpu.icache.demand_accesses::.cpu.inst           20                       # number of demand (read+write) accesses
system.cpu.icache.demand_accesses::.switch_cpus.inst    154524762                       # number of demand (read+write) accesses
system.cpu.icache.demand_accesses::total    154524782                       # number of demand (read+write) accesses
system.cpu.icache.overall_accesses::.cpu.inst           20                       # number of overall (read+write) accesses
system.cpu.icache.overall_accesses::.switch_cpus.inst    154524762                       # number of overall (read+write) accesses
system.cpu.icache.overall_accesses::total    154524782                       # number of overall (read+write) accesses
system.cpu.icache.demand_miss_rate::.cpu.inst     0.100000                       # miss rate for demand accesses
system.cpu.icache.demand_miss_rate::.switch_cpus.inst     0.000000                       # miss rate for demand accesses
system.cpu.icache.demand_miss_rate::total     0.000000                       # miss rate for demand accesses
system.cpu.icache.overall_miss_rate::.cpu.inst     0.100000                       # miss rate for overall accesses
system.cpu.icache.overall_miss_rate::.switch_cpus.inst     0.000000                       # miss rate for overall accesses
system.cpu.icache.overall_miss_rate::total     0.000000                       # miss rate for overall accesses
system.cpu.icache.demand_avg_miss_latency::.switch_cpus.inst 90962.686567                       # average overall miss latency
system.cpu.icache.demand_avg_miss_latency::total 88326.086957                       # average overall miss latency
system.cpu.icache.overall_avg_miss_latency::.switch_cpus.inst 90962.686567                       # average overall miss latency
system.cpu.icache.overall_avg_miss_latency::total 88326.086957                       # average overall miss latency
system.cpu.icache.blocked_cycles::no_mshrs            0                       # number of cycles access was blocked
system.cpu.icache.blocked_cycles::no_targets            0                       # number of cycles access was blocked
system.cpu.icache.blocked::no_mshrs                 0                       # number of cycles access was blocked
system.cpu.icache.blocked::no_targets               0                       # number of cycles access was blocked
system.cpu.icache.avg_blocked_cycles::no_mshrs          nan                       # average number of cycles each access was blocked
system.cpu.icache.avg_blocked_cycles::no_targets          nan                       # average number of cycles each access was blocked
system.cpu.icache.ghost_timestamp_misses            0                       # number of times timestamp policy causes a block to be inaccessible
system.cpu.icache.ghost_commits                    28                       # number of cache lines moved from ghost to main
system.cpu.icache.same_leapfrogs                    0                       # number of times leapfrogging occurs with a shared MSHR request
system.cpu.icache.writebacks::.writebacks           28                       # number of writebacks
system.cpu.icache.writebacks::total                28                       # number of writebacks
system.cpu.icache.demand_mshr_misses::.switch_cpus.inst           67                       # number of demand (read+write) MSHR misses
system.cpu.icache.demand_mshr_misses::total           67                       # number of demand (read+write) MSHR misses
system.cpu.icache.overall_mshr_misses::.switch_cpus.inst           67                       # number of overall MSHR misses
system.cpu.icache.overall_mshr_misses::total           67                       # number of overall MSHR misses
system.cpu.icache.demand_mshr_miss_latency::.switch_cpus.inst      6027500                       # number of demand (read+write) MSHR miss cycles
system.cpu.icache.demand_mshr_miss_latency::total      6027500                       # number of demand (read+write) MSHR miss cycles
system.cpu.icache.overall_mshr_miss_latency::.switch_cpus.inst      6027500                       # number of overall MSHR miss cycles
system.cpu.icache.overall_mshr_miss_latency::total      6027500                       # number of overall MSHR miss cycles
system.cpu.icache.demand_mshr_miss_rate::.switch_cpus.inst     0.000000                       # mshr miss rate for demand accesses
system.cpu.icache.demand_mshr_miss_rate::total     0.000000                       # mshr miss rate for demand accesses
system.cpu.icache.overall_mshr_miss_rate::.switch_cpus.inst     0.000000                       # mshr miss rate for overall accesses
system.cpu.icache.overall_mshr_miss_rate::total     0.000000                       # mshr miss rate for overall accesses
system.cpu.icache.demand_avg_mshr_miss_latency::.switch_cpus.inst 89962.686567                       # average overall mshr miss latency
system.cpu.icache.demand_avg_mshr_miss_latency::total 89962.686567                       # average overall mshr miss latency
system.cpu.icache.overall_avg_mshr_miss_latency::.switch_cpus.inst 89962.686567                       # average overall mshr miss latency
system.cpu.icache.overall_avg_mshr_miss_latency::total 89962.686567                       # average overall mshr miss latency
system.cpu.icache.replacements                      0                       # number of replacements
system.cpu.icache.ReadReq_hits::.cpu.inst           18                       # number of ReadReq hits
system.cpu.icache.ReadReq_hits::.switch_cpus.inst    154524695                       # number of ReadReq hits
system.cpu.icache.ReadReq_hits::total       154524713                       # number of ReadReq hits
system.cpu.icache.ReadReq_misses::.cpu.inst            2                       # number of ReadReq misses
system.cpu.icache.ReadReq_misses::.switch_cpus.inst           67                       # number of ReadReq misses
system.cpu.icache.ReadReq_misses::total            69                       # number of ReadReq misses
system.cpu.icache.ReadReq_miss_latency::.switch_cpus.inst      6094500                       # number of ReadReq miss cycles
system.cpu.icache.ReadReq_miss_latency::total      6094500                       # number of ReadReq miss cycles
system.cpu.icache.ReadReq_accesses::.cpu.inst           20                       # number of ReadReq accesses(hits+misses)
system.cpu.icache.ReadReq_accesses::.switch_cpus.inst    154524762                       # number of ReadReq accesses(hits+misses)
system.cpu.icache.ReadReq_accesses::total    154524782                       # number of ReadReq accesses(hits+misses)
system.cpu.icache.ReadReq_miss_rate::.cpu.inst     0.100000                       # miss rate for ReadReq accesses
system.cpu.icache.ReadReq_miss_rate::.switch_cpus.inst     0.000000                       # miss rate for ReadReq accesses
system.cpu.icache.ReadReq_miss_rate::total     0.000000                       # miss rate for ReadReq accesses
system.cpu.icache.ReadReq_avg_miss_latency::.switch_cpus.inst 90962.686567                       # average ReadReq miss latency
system.cpu.icache.ReadReq_avg_miss_latency::total 88326.086957                       # average ReadReq miss latency
system.cpu.icache.ReadReq_mshr_misses::.switch_cpus.inst           67                       # number of ReadReq MSHR misses
system.cpu.icache.ReadReq_mshr_misses::total           67                       # number of ReadReq MSHR misses
system.cpu.icache.ReadReq_mshr_miss_latency::.switch_cpus.inst      6027500                       # number of ReadReq MSHR miss cycles
system.cpu.icache.ReadReq_mshr_miss_latency::total      6027500                       # number of ReadReq MSHR miss cycles
system.cpu.icache.ReadReq_mshr_miss_rate::.switch_cpus.inst     0.000000                       # mshr miss rate for ReadReq accesses
system.cpu.icache.ReadReq_mshr_miss_rate::total     0.000000                       # mshr miss rate for ReadReq accesses
system.cpu.icache.ReadReq_avg_mshr_miss_latency::.switch_cpus.inst 89962.686567                       # average ReadReq mshr miss latency
system.cpu.icache.ReadReq_avg_mshr_miss_latency::total 89962.686567                       # average ReadReq mshr miss latency
system.cpu.icache.ghosttags.tagsinuse        0.000005                       # Cycle average of tags in use
system.cpu.icache.ghosttags.total_refs              0                       # Total number of references to valid blocks.
system.cpu.icache.ghosttags.sampled_refs            0                       # Sample count of references to valid blocks.
system.cpu.icache.ghosttags.avg_refs              nan                       # Average number of references to valid blocks.
system.cpu.icache.ghosttags.warmup_cycle 5552222338500                       # Cycle when the warmup percentage was hit.
system.cpu.icache.ghosttags.occ_blocks::.switch_cpus.inst    60.080550                       # Average occupied blocks per requestor
system.cpu.icache.ghosttags.occ_percent::.switch_cpus.inst     1.877517                       # Average percentage of cache occupancy
system.cpu.icache.ghosttags.occ_percent::total     1.877517                       # Average percentage of cache occupancy
system.cpu.icache.ghosttags.tag_accesses          219                       # Number of tag accesses
system.cpu.icache.ghosttags.data_accesses          219                       # Number of data accesses
system.cpu.icache.ghosttags.repl_invalid            0                       # Number of initial replacements
system.cpu.icache.ghosttags.repl_valid_tag            0                       # Number of local replacements
system.cpu.icache.ghosttags.repl_valid_data            0                       # Number of global replacements
system.cpu.icache.ghosttags.power_state.pwrStateResidencyTicks::UNDEFINED 6844907666500                       # Cumulative time (in ticks) in various power states
system.cpu.icache.power_state.pwrStateResidencyTicks::UNDEFINED 6844907666500                       # Cumulative time (in ticks) in various power states
system.cpu.icache.tags.tagsinuse           -30.810488                       # Cycle average of tags in use
system.cpu.icache.tags.total_refs           154524810                       # Total number of references to valid blocks.
system.cpu.icache.tags.sampled_refs                97                       # Sample count of references to valid blocks.
system.cpu.icache.tags.avg_refs          1593039.278351                       # Average number of references to valid blocks.
system.cpu.icache.tags.warmup_cycle      5552222094000                       # Cycle when the warmup percentage was hit.
system.cpu.icache.tags.occ_blocks::.cpu.inst     2.000000                       # Average occupied blocks per requestor
system.cpu.icache.tags.occ_blocks::.switch_cpus.inst   -32.810488                       # Average occupied blocks per requestor
system.cpu.icache.tags.occ_percent::.cpu.inst     0.003906                       # Average percentage of cache occupancy
system.cpu.icache.tags.occ_percent::.switch_cpus.inst    -0.064083                       # Average percentage of cache occupancy
system.cpu.icache.tags.occ_percent::total    -0.060177                       # Average percentage of cache occupancy
system.cpu.icache.tags.occ_task_id_blocks::1024           32                       # Occupied blocks per task id
system.cpu.icache.tags.age_task_id_blocks_1024::4           32                       # Occupied blocks per task id
system.cpu.icache.tags.occ_task_id_percent::1024     0.062500                       # Percentage of cache occupancy per task id
system.cpu.icache.tags.tag_accesses        1236198288                       # Number of tag accesses
system.cpu.icache.tags.data_accesses       1236198288                       # Number of data accesses
system.cpu.icache.tags.repl_invalid                 0                       # Number of initial replacements
system.cpu.icache.tags.repl_valid_tag               0                       # Number of local replacements
system.cpu.icache.tags.repl_valid_data              0                       # Number of global replacements
system.cpu.icache.tags.power_state.pwrStateResidencyTicks::UNDEFINED 6844907666500                       # Cumulative time (in ticks) in various power states
system.cpu.itb.instHits                             0                       # ITB inst hits
system.cpu.itb.instMisses                           0                       # ITB inst misses
system.cpu.itb.readHits                             0                       # DTB read hits
system.cpu.itb.readMisses                           0                       # DTB read misses
system.cpu.itb.writeHits                            0                       # DTB write hits
system.cpu.itb.writeMisses                          0                       # DTB write misses
system.cpu.itb.inserts                              0                       # Number of times an entry is inserted into the TLB
system.cpu.itb.flushTlb                             2                       # Number of times complete TLB was flushed
system.cpu.itb.flushTlbMva                          0                       # Number of times TLB was flushed by MVA
system.cpu.itb.flushTlbMvaAsid                      0                       # Number of times TLB was flushed by MVA & ASID
system.cpu.itb.flushTlbAsid                         0                       # Number of times TLB was flushed by ASID
system.cpu.itb.flushedEntries                       0                       # Number of entries that have been flushed from TLB
system.cpu.itb.alignFaults                          0                       # Number of TLB faults due to alignment restrictions
system.cpu.itb.prefetchFaults                       0                       # Number of TLB faults due to prefetch
system.cpu.itb.domainFaults                         0                       # Number of TLB faults due to domain restrictions
system.cpu.itb.permsFaults                          0                       # Number of TLB faults due to permissions restrictions
system.cpu.itb.readAccesses                         0                       # DTB read accesses
system.cpu.itb.writeAccesses                        0                       # DTB write accesses
system.cpu.itb.instAccesses                         0                       # ITB inst accesses
system.cpu.itb.hits                                 0                       # Total TLB (inst and data) hits
system.cpu.itb.misses                               0                       # Total TLB (inst and data) misses
system.cpu.itb.accesses                             0                       # Total TLB (inst and data) accesses
system.cpu.itb.stage2_mmu.stage2_tlb.instHits            0                       # ITB inst hits
system.cpu.itb.stage2_mmu.stage2_tlb.instMisses            0                       # ITB inst misses
system.cpu.itb.stage2_mmu.stage2_tlb.readHits            0                       # DTB read hits
system.cpu.itb.stage2_mmu.stage2_tlb.readMisses            0                       # DTB read misses
system.cpu.itb.stage2_mmu.stage2_tlb.writeHits            0                       # DTB write hits
system.cpu.itb.stage2_mmu.stage2_tlb.writeMisses            0                       # DTB write misses
system.cpu.itb.stage2_mmu.stage2_tlb.inserts            0                       # Number of times an entry is inserted into the TLB
system.cpu.itb.stage2_mmu.stage2_tlb.flushTlb            0                       # Number of times complete TLB was flushed
system.cpu.itb.stage2_mmu.stage2_tlb.flushTlbMva            0                       # Number of times TLB was flushed by MVA
system.cpu.itb.stage2_mmu.stage2_tlb.flushTlbMvaAsid            0                       # Number of times TLB was flushed by MVA & ASID
system.cpu.itb.stage2_mmu.stage2_tlb.flushTlbAsid            0                       # Number of times TLB was flushed by ASID
system.cpu.itb.stage2_mmu.stage2_tlb.flushedEntries            0                       # Number of entries that have been flushed from TLB
system.cpu.itb.stage2_mmu.stage2_tlb.alignFaults            0                       # Number of TLB faults due to alignment restrictions
system.cpu.itb.stage2_mmu.stage2_tlb.prefetchFaults            0                       # Number of TLB faults due to prefetch
system.cpu.itb.stage2_mmu.stage2_tlb.domainFaults            0                       # Number of TLB faults due to domain restrictions
system.cpu.itb.stage2_mmu.stage2_tlb.permsFaults            0                       # Number of TLB faults due to permissions restrictions
system.cpu.itb.stage2_mmu.stage2_tlb.readAccesses            0                       # DTB read accesses
system.cpu.itb.stage2_mmu.stage2_tlb.writeAccesses            0                       # DTB write accesses
system.cpu.itb.stage2_mmu.stage2_tlb.instAccesses            0                       # ITB inst accesses
system.cpu.itb.stage2_mmu.stage2_tlb.hits            0                       # Total TLB (inst and data) hits
system.cpu.itb.stage2_mmu.stage2_tlb.misses            0                       # Total TLB (inst and data) misses
[...]
system.switch_cpus.fetch.insts             2115696392                       # Number of instructions fetch has processed
system.switch_cpus.fetch.branches            29053265                       # Number of branches that fetch encountered
system.switch_cpus.fetch.predictedBranches     19161380                       # Number of branches that fetch has predicted taken
system.switch_cpus.fetch.cycles            2428607940                       # Number of cycles fetch has run and was not squashing or blocked
system.switch_cpus.fetch.squashCycles         2282062                       # Number of cycles fetch has spent squashing
system.switch_cpus.fetch.pendingTrapStallCycles           92                       # Number of stall cycles due to pending traps
system.switch_cpus.fetch.cacheLines         154524762                       # Number of cache lines fetched
system.switch_cpus.fetch.icacheSquashes         30365                       # Number of outstanding Icache misses that were squashed
system.switch_cpus.fetch.nisnDist::samples   2585365181                       # Number of instructions fetched each cycle (Total)
system.switch_cpus.fetch.nisnDist::mean      0.866981                       # Number of instructions fetched each cycle (Total)
system.switch_cpus.fetch.nisnDist::stdev     2.346267                       # Number of instructions fetched each cycle (Total)
system.switch_cpus.fetch.nisnDist::underflows            0      0.00%      0.00% # Number of instructions fetched each cycle (Total)
system.switch_cpus.fetch.nisnDist::0       2242217591     86.73%     86.73% # Number of instructions fetched each cycle (Total)
system.switch_cpus.fetch.nisnDist::1          9449079      0.37%     87.09% # Number of instructions fetched each cycle (Total)
system.switch_cpus.fetch.nisnDist::2          5205306      0.20%     87.29% # Number of instructions fetched each cycle (Total)
system.switch_cpus.fetch.nisnDist::3         16285772      0.63%     87.92% # Number of instructions fetched each cycle (Total)
system.switch_cpus.fetch.nisnDist::4         72122684      2.79%     90.71% # Number of instructions fetched each cycle (Total)
system.switch_cpus.fetch.nisnDist::5          1412631      0.05%     90.77% # Number of instructions fetched each cycle (Total)
system.switch_cpus.fetch.nisnDist::6          8642289      0.33%     91.10% # Number of instructions fetched each cycle (Total)
system.switch_cpus.fetch.nisnDist::7         14899527      0.58%     91.68% # Number of instructions fetched each cycle (Total)
system.switch_cpus.fetch.nisnDist::8        215130302      8.32%    100.00% # Number of instructions fetched each cycle (Total)
system.switch_cpus.fetch.nisnDist::overflows            0      0.00%    100.00% # Number of instructions fetched each cycle (Total)
system.switch_cpus.fetch.nisnDist::min_value            0                       # Number of instructions fetched each cycle (Total)
system.switch_cpus.fetch.nisnDist::max_value            8                       # Number of instructions fetched each cycle (Total)
system.switch_cpus.fetch.nisnDist::total   2585365181                       # Number of instructions fetched each cycle (Total)
system.switch_cpus.fetch.branchRate          0.011238                       # Number of branch fetches per cycle
system.switch_cpus.fetch.rate                0.818334                       # Number of inst fetches per cycle
system.switch_cpus.itb.instHits                     0                       # ITB inst hits
system.switch_cpus.itb.instMisses                   0                       # ITB inst misses
system.switch_cpus.itb.readHits                     0                       # DTB read hits
system.switch_cpus.itb.readMisses                   0                       # DTB read misses
system.switch_cpus.itb.writeHits                    0                       # DTB write hits
system.switch_cpus.itb.writeMisses                  0                       # DTB write misses
system.switch_cpus.itb.inserts                      0                       # Number of times an entry is inserted into the TLB
system.switch_cpus.itb.flushTlb                     0                       # Number of times complete TLB was flushed
system.switch_cpus.itb.flushTlbMva                  0                       # Number of times TLB was flushed by MVA
system.switch_cpus.itb.flushTlbMvaAsid              0                       # Number of times TLB was flushed by MVA & ASID
system.switch_cpus.itb.flushTlbAsid                 0                       # Number of times TLB was flushed by ASID
system.switch_cpus.itb.flushedEntries               0                       # Number of entries that have been flushed from TLB
system.switch_cpus.itb.alignFaults                  0                       # Number of TLB faults due to alignment restrictions
system.switch_cpus.itb.prefetchFaults               0                       # Number of TLB faults due to prefetch
system.switch_cpus.itb.domainFaults                 0                       # Number of TLB faults due to domain restrictions
system.switch_cpus.itb.permsFaults                  0                       # Number of TLB faults due to permissions restrictions
system.switch_cpus.itb.readAccesses                 0                       # DTB read accesses
system.switch_cpus.itb.writeAccesses                0                       # DTB write accesses
system.switch_cpus.itb.instAccesses                 0                       # ITB inst accesses
system.switch_cpus.itb.hits                         0                       # Total TLB (inst and data) hits
system.switch_cpus.itb.misses                       0                       # Total TLB (inst and data) misses
system.switch_cpus.itb.accesses                     0                       # Total TLB (inst and data) accesses
system.switch_cpus.itb.stage2_mmu.stage2_tlb.instHits            0                       # ITB inst hits
system.switch_cpus.itb.stage2_mmu.stage2_tlb.instMisses            0                       # ITB inst misses
system.switch_cpus.itb.stage2_mmu.stage2_tlb.readHits            0                       # DTB read hits
system.switch_cpus.itb.stage2_mmu.stage2_tlb.readMisses            0                       # DTB read misses
system.switch_cpus.itb.stage2_mmu.stage2_tlb.writeHits            0                       # DTB write hits
system.switch_cpus.itb.stage2_mmu.stage2_tlb.writeMisses            0                       # DTB write misses
system.switch_cpus.itb.stage2_mmu.stage2_tlb.inserts            0                       # Number of times an entry is inserted into the TLB
system.switch_cpus.itb.stage2_mmu.stage2_tlb.flushTlb            0                       # Number of times complete TLB was flushed
system.switch_cpus.itb.stage2_mmu.stage2_tlb.flushTlbMva            0                       # Number of times TLB was flushed by MVA
system.switch_cpus.itb.stage2_mmu.stage2_tlb.flushTlbMvaAsid            0                       # Number of times TLB was flushed by MVA & ASID
system.switch_cpus.itb.stage2_mmu.stage2_tlb.flushTlbAsid            0                       # Number of times TLB was flushed by ASID
system.switch_cpus.itb.stage2_mmu.stage2_tlb.flushedEntries            0                       # Number of entries that have been flushed from TLB
system.switch_cpus.itb.stage2_mmu.stage2_tlb.alignFaults            0                       # Number of TLB faults due to alignment restrictions
system.switch_cpus.itb.stage2_mmu.stage2_tlb.prefetchFaults            0                       # Number of TLB faults due to prefetch
system.switch_cpus.itb.stage2_mmu.stage2_tlb.domainFaults            0                       # Number of TLB faults due to domain restrictions
system.switch_cpus.itb.stage2_mmu.stage2_tlb.permsFaults            0                       # Number of TLB faults due to permissions restrictions
system.switch_cpus.itb.stage2_mmu.stage2_tlb.readAccesses            0                       # DTB read accesses
system.switch_cpus.itb.stage2_mmu.stage2_tlb.writeAccesses            0                       # DTB write accesses
system.switch_cpus.itb.stage2_mmu.stage2_tlb.instAccesses            0                       # ITB inst accesses
system.switch_cpus.itb.stage2_mmu.stage2_tlb.hits            0                       # Total TLB (inst and data) hits
system.switch_cpus.itb.stage2_mmu.stage2_tlb.misses            0                       # Total TLB (inst and data) misses
system.switch_cpus.itb.stage2_mmu.stage2_tlb.accesses            0                       # Total TLB (inst and data) accesses
system.switch_cpus.itb.stage2_mmu.stage2_tlb.walker.walks            0                       # Table walker walks requested
system.switch_cpus.itb.stage2_mmu.stage2_tlb.walker.requestOrigin_Requested::Data            0                       # Table walker requests started/completed, data/inst
system.switch_cpus.itb.stage2_mmu.stage2_tlb.walker.requestOrigin_Requested::Inst            0                       # Table walker requests started/completed, data/inst
system.switch_cpus.itb.stage2_mmu.stage2_tlb.walker.requestOrigin_Requested::total            0                       # Table walker requests started/completed, data/inst
system.switch_cpus.itb.stage2_mmu.stage2_tlb.walker.requestOrigin_Completed::Data            0                       # Table walker requests started/completed, data/inst
system.switch_cpus.itb.stage2_mmu.stage2_tlb.walker.requestOrigin_Completed::Inst            0                       # Table walker requests started/completed, data/inst
system.switch_cpus.itb.stage2_mmu.stage2_tlb.walker.requestOrigin_Completed::total            0                       # Table walker requests started/completed, data/inst
system.switch_cpus.itb.stage2_mmu.stage2_tlb.walker.requestOrigin::total            0                       # Table walker requests started/completed, data/inst
system.switch_cpus.itb.stage2_mmu.stage2_tlb.walker.power_state.pwrStateResidencyTicks::UNDEFINED 6844907666500                       # Cumulative time (in ticks) in various power states
system.switch_cpus.itb.walker.walks                 0                       # Table walker walks requested
system.switch_cpus.itb.walker.requestOrigin_Requested::Data            0                       # Table walker requests started/completed, data/inst
system.switch_cpus.itb.walker.requestOrigin_Requested::Inst            0                       # Table walker requests started/completed, data/inst
system.switch_cpus.itb.walker.requestOrigin_Requested::total            0                       # Table walker requests started/completed, data/inst
system.switch_cpus.itb.walker.requestOrigin_Completed::Data            0                       # Table walker requests started/completed, data/inst
system.switch_cpus.itb.walker.requestOrigin_Completed::Inst            0                       # Table walker requests started/completed, data/inst
system.switch_cpus.itb.walker.requestOrigin_Completed::total            0                       # Table walker requests started/completed, data/inst
system.switch_cpus.itb.walker.requestOrigin::total            0                       # Table walker requests started/completed, data/inst
system.switch_cpus.itb.walker.power_state.pwrStateResidencyTicks::UNDEFINED 6844907666500                       # Cumulative time (in ticks) in various power states
system.switch_cpus.lsq0.forwLoads            30012283                       # Number of loads that had data forwarded from stores
system.switch_cpus.lsq0.squashedLoads        15003814                       # Number of loads squashed
system.switch_cpus.lsq0.ignoredResponses          225                       # Number of memory responses ignored because the instruction is squashed
system.switch_cpus.lsq0.memOrderViolation         9971                       # Number of memory ordering violations
system.switch_cpus.lsq0.squashedStores       15352068                       # Number of stores squashed
system.switch_cpus.lsq0.rescheduledLoads            3                       # Number of loads that were rescheduled
system.switch_cpus.lsq0.blockedByCache      162036925                       # Number of times an access to memory failed due to the cache being blocked
system.switch_cpus.power_state.pwrStateResidencyTicks::OFF 1292685573000                       # Cumulative time (in ticks) in various power states
system.switch_cpus.rename.squashCycles        1141026                       # Number of cycles rename is squashing
system.switch_cpus.rename.idleCycles        109726340                       # Number of cycles rename is idle
system.switch_cpus.rename.blockCycles      1026315838                       # Number of cycles rename is blocking
system.switch_cpus.rename.serializeStallCycles            0                       # count of cycles rename stalledfor serializing inst
system.switch_cpus.rename.runCycles         225918425                       # Number of cycles rename is running
system.switch_cpus.rename.unblockCycles    1222263532                       # Number of cycles rename is unblocking
system.switch_cpus.rename.renamedInsts     2184005180                       # Number of instructions processed by rename
system.switch_cpus.rename.ROBFullEvents         68267                       # Number of times rename has blocked due to ROB full
system.switch_cpus.rename.IQFullEvents      211576532                       # Number of times rename has blocked due to IQ full
system.switch_cpus.rename.LQFullEvents       81994526                       # Number of times rename has blocked due to LQ full
system.switch_cpus.rename.SQFullEvents      954402493                       # Number of times rename has blocked due to SQ full
system.switch_cpus.rename.renamedOperands   3185722011                       # Number of destination operands rename has renamed
system.switch_cpus.rename.lookups          8960866532                       # Number of register rename lookups that rename has made
system.switch_cpus.rename.intLookups        921539691                       # Number of integer rename lookups
system.switch_cpus.rename.vecLookups       2818937119                       # Number of vector rename lookups
system.switch_cpus.rename.committedMaps    3100868567                       # Number of HB maps that are committed
system.switch_cpus.rename.undoneMaps         84853406                       # Number of HB maps that are undone due to squashing
system.switch_cpus.rename.serializing               0                       # count of serializing insts renamed
system.switch_cpus.rename.tempSerializing            0                       # count of temporary serializing insts renamed
system.switch_cpus.rename.skidInsts         713111898                       # count of insts added to the skid buffer
system.switch_cpus.rob.reads               4560829700                       # The number of ROB reads
system.switch_cpus.rob.writes              4373811583                       # The number of ROB writes
system.switch_cpus.thread0.numInsts        2000000007                       # Number of Instructions committed
system.switch_cpus.thread0.numOps          2113800133                       # Number of Ops committed
system.switch_cpus.thread0.numMemRefs               0                       # Number of Memory References
system.tol2bus.trans_dist::ReadResp          33603303                       # Transaction distribution
system.tol2bus.trans_dist::WritebackDirty    232344114                       # Transaction distribution
system.tol2bus.trans_dist::WritebackClean     27193260                       # Transaction distribution
system.tol2bus.trans_dist::CleanEvict        32309388                       # Transaction distribution
system.tol2bus.trans_dist::HardPFReq        168291975                       # Transaction distribution
system.tol2bus.trans_dist::UpgradeReq              48                       # Transaction distribution
system.tol2bus.trans_dist::UpgradeResp             48                       # Transaction distribution
system.tol2bus.trans_dist::ReadExReq        152434014                       # Transaction distribution
system.tol2bus.trans_dist::ReadExResp       152434010                       # Transaction distribution
system.tol2bus.trans_dist::ReadCleanReq      33603302                       # Transaction distribution
system.tol2bus.trans_dist::ReadSharedReq            1                       # Transaction distribution
system.tol2bus.trans_dist::InvalidateReq           83                       # Transaction distribution
system.tol2bus.trans_dist::InvalidateResp           83                       # Transaction distribution
system.tol2bus.pkt_count_system.cpu.icache.mem_side_port::system.l2.cpu_side_port          175                       # Packet count per connected requestor and responder (bytes)
system.tol2bus.pkt_count_system.cpu.dcache.mem_side_port::system.l2.cpu_side_port    553445920                       # Packet count per connected requestor and responder (bytes)
system.tol2bus.pkt_count::total             553446095                       # Packet count per connected requestor and responder (bytes)
system.tol2bus.pkt_size_system.cpu.icache.mem_side_port::system.l2.cpu_side_port         4416                       # Cumulative packet size per connected requestor and responder (bytes)
system.tol2bus.pkt_size_system.cpu.dcache.mem_side_port::system.l2.cpu_side_port  23402509568                       # Cumulative packet size per connected requestor and responder (bytes)
system.tol2bus.pkt_size::total            23402513984                       # Cumulative packet size per connected requestor and responder (bytes)
system.tol2bus.snoops                       278767534                       # Total snoops (count)
system.tol2bus.snoopTraffic                5114265984                       # Total snoop traffic (bytes)
system.tol2bus.snoop_fanout::samples        464810298                       # Request fanout histogram
system.tol2bus.snoop_fanout::mean            0.007220                       # Request fanout histogram
system.tol2bus.snoop_fanout::stdev           0.084665                       # Request fanout histogram
system.tol2bus.snoop_fanout::underflows             0      0.00%      0.00% # Request fanout histogram
system.tol2bus.snoop_fanout::0              461454264     99.28%     99.28% # Request fanout histogram
system.tol2bus.snoop_fanout::1                3356034      0.72%    100.00% # Request fanout histogram
system.tol2bus.snoop_fanout::2                      0      0.00%    100.00% # Request fanout histogram
system.tol2bus.snoop_fanout::overflows              0      0.00%    100.00% # Request fanout histogram
system.tol2bus.snoop_fanout::min_value              0                       # Request fanout histogram
system.tol2bus.snoop_fanout::max_value              1                       # Request fanout histogram
system.tol2bus.snoop_fanout::total          464810298                       # Request fanout histogram
system.tol2bus.power_state.pwrStateResidencyTicks::UNDEFINED 6844907666500                       # Cumulative time (in ticks) in various power states
system.tol2bus.reqLayer0.occupancy       372943756145                       # Layer occupancy (ticks)
system.tol2bus.reqLayer0.utilization             28.9                       # Layer utilization (%)
system.tol2bus.respLayer0.occupancy            100500                       # Layer occupancy (ticks)
system.tol2bus.respLayer0.utilization             0.0                       # Layer utilization (%)
system.tol2bus.respLayer1.occupancy      279055928500                       # Layer occupancy (ticks)
system.tol2bus.respLayer1.utilization            21.6                       # Layer utilization (%)
system.voltage_domain.voltage                       1                       # Voltage in Volts

---------- End Simulation Statistics   ----------
