
*** ChampSim Multicore Out-of-Order Simulator ***

Warmup Instructions: 50000000
Simulation Instructions: 50000000
Number of CPUs: 2
LLC sets: 4096
LLC ways: 16
Off-chip DRAM Size: 4096 MB Channels: 1 Width: 64-bit Data Rate: 6400 MT/s
CPU 0 runs ../Given/traces//605.mcf_s-1554B.champsimtrace.xz
.xz
CPU 1 runs ../Given/traces//600.perlbench_s-570B.champsimtrace.xz
.xz
CPU 0 Bimodal branch predictor
BTB has LRU replacement policy
ITLB has LRU replacement policy
DTLB has LRU replacement policy
STLB has LRU replacement policy
L1I has LRU replacement policy
L1D has LRU replacement policy
L2C has LRU replacement policy
LLC has LRU replacement policy
CPU 1 Bimodal branch predictor
BTB has LRU replacement policy
ITLB has LRU replacement policy
DTLB has LRU replacement policy
STLB has LRU replacement policy
L1I has LRU replacement policy
L1D has LRU replacement policy
L2C has LRU replacement policy
LLC has LRU replacement policy
Heartbeat CPU 1 instructions: 10000003 cycles: 2894394 heartbeat IPC: 3.45496 cumulative IPC: 3.45496 (Simulation time: 0 hr 0 min 27 sec) 
Heartbeat CPU 0 instructions: 10000001 cycles: 3596152 heartbeat IPC: 2.78075 cumulative IPC: 2.78075 (Simulation time: 0 hr 0 min 34 sec) 
Heartbeat CPU 1 instructions: 20000003 cycles: 5753384 heartbeat IPC: 3.49774 cumulative IPC: 3.47622 (Simulation time: 0 hr 0 min 56 sec) 
Heartbeat CPU 0 instructions: 20000001 cycles: 7213737 heartbeat IPC: 2.76428 cumulative IPC: 2.77249 (Simulation time: 0 hr 1 min 10 sec) 
Heartbeat CPU 1 instructions: 30000003 cycles: 8649155 heartbeat IPC: 3.45331 cumulative IPC: 3.46855 (Simulation time: 0 hr 1 min 26 sec) 
Heartbeat CPU 0 instructions: 30000002 cycles: 10841872 heartbeat IPC: 2.75624 cumulative IPC: 2.76705 (Simulation time: 0 hr 1 min 51 sec) 
Heartbeat CPU 1 instructions: 40000002 cycles: 11520749 heartbeat IPC: 3.48239 cumulative IPC: 3.472 (Simulation time: 0 hr 1 min 59 sec) 
Heartbeat CPU 1 instructions: 50000002 cycles: 14390613 heartbeat IPC: 3.48449 cumulative IPC: 3.47449 (Simulation time: 0 hr 2 min 30 sec) 
Heartbeat CPU 0 instructions: 40000001 cycles: 14459417 heartbeat IPC: 2.76431 cumulative IPC: 2.76636 (Simulation time: 0 hr 2 min 31 sec) 
Heartbeat CPU 1 instructions: 60000001 cycles: 17756862 heartbeat IPC: 2.97067 cumulative IPC: 0.563163 (Simulation time: 0 hr 2 min 59 sec) 
Heartbeat CPU 0 instructions: 50000000 cycles: 18078275 heartbeat IPC: 2.7633 cumulative IPC: 2.76575 (Simulation time: 0 hr 3 min 1 sec) 

Warmup complete CPU 0 instructions: 50000004 cycles: 18078276 (Simulation time: 0 hr 3 min 1 sec) 
Warmup complete CPU 1 instructions: 60880503 cycles: 18078275 (Simulation time: 0 hr 3 min 1 sec) 

Heartbeat CPU 1 instructions: 70000000 cycles: 41351465 heartbeat IPC: 0.423826 cumulative IPC: 0.391846 (Simulation time: 0 hr 3 min 35 sec) 
Heartbeat CPU 1 instructions: 80000002 cycles: 67661059 heartbeat IPC: 0.38009 cumulative IPC: 0.385608 (Simulation time: 0 hr 4 min 13 sec) 
Heartbeat CPU 0 instructions: 60000000 cycles: 92456609 heartbeat IPC: 0.134448 cumulative IPC: 0.134448 (Simulation time: 0 hr 4 min 44 sec) 
Heartbeat CPU 1 instructions: 90000003 cycles: 99551198 heartbeat IPC: 0.313577 cumulative IPC: 0.357413 (Simulation time: 0 hr 4 min 54 sec) 
Heartbeat CPU 1 instructions: 100000002 cycles: 116087668 heartbeat IPC: 0.604724 cumulative IPC: 0.39914 (Simulation time: 0 hr 5 min 24 sec) 
Heartbeat CPU 1 instructions: 110000000 cycles: 132736268 heartbeat IPC: 0.600651 cumulative IPC: 0.4284 (Simulation time: 0 hr 5 min 55 sec) 
Finished CPU 1 instructions: 50000000 cycles: 116269697 cumulative IPC: 0.430035 (Simulation time: 0 hr 5 min 58 sec) 
Heartbeat CPU 1 instructions: 120000003 cycles: 150061592 heartbeat IPC: 0.57719 cumulative IPC: 0.447932 (Simulation time: 0 hr 6 min 23 sec) 
Heartbeat CPU 1 instructions: 130000000 cycles: 167198228 heartbeat IPC: 0.583545 cumulative IPC: 0.463516 (Simulation time: 0 hr 6 min 50 sec) 
Heartbeat CPU 0 instructions: 70000001 cycles: 167591796 heartbeat IPC: 0.133093 cumulative IPC: 0.133767 (Simulation time: 0 hr 6 min 51 sec) 
Heartbeat CPU 1 instructions: 140000000 cycles: 199718292 heartbeat IPC: 0.307502 cumulative IPC: 0.435584 (Simulation time: 0 hr 7 min 27 sec) 
Heartbeat CPU 1 instructions: 150000002 cycles: 229808624 heartbeat IPC: 0.332333 cumulative IPC: 0.42091 (Simulation time: 0 hr 8 min 2 sec) 
Heartbeat CPU 0 instructions: 80000000 cycles: 245147230 heartbeat IPC: 0.12894 cumulative IPC: 0.132118 (Simulation time: 0 hr 8 min 21 sec) 
Heartbeat CPU 1 instructions: 160000001 cycles: 254780171 heartbeat IPC: 0.400456 cumulative IPC: 0.418752 (Simulation time: 0 hr 8 min 36 sec) 
Heartbeat CPU 1 instructions: 170000001 cycles: 273330930 heartbeat IPC: 0.539061 cumulative IPC: 0.427496 (Simulation time: 0 hr 9 min 5 sec) 
Heartbeat CPU 1 instructions: 180000000 cycles: 296690569 heartbeat IPC: 0.428089 cumulative IPC: 0.427546 (Simulation time: 0 hr 9 min 41 sec) 
Heartbeat CPU 0 instructions: 90000002 cycles: 320525152 heartbeat IPC: 0.132665 cumulative IPC: 0.132255 (Simulation time: 0 hr 10 min 10 sec) 
Heartbeat CPU 1 instructions: 190000001 cycles: 329089516 heartbeat IPC: 0.308652 cumulative IPC: 0.41516 (Simulation time: 0 hr 10 min 21 sec) 
Heartbeat CPU 1 instructions: 200000001 cycles: 359856489 heartbeat IPC: 0.325024 cumulative IPC: 0.407046 (Simulation time: 0 hr 11 min 1 sec) 
Heartbeat CPU 1 instructions: 210000000 cycles: 383296248 heartbeat IPC: 0.426625 cumulative IPC: 0.408303 (Simulation time: 0 hr 11 min 34 sec) 
Heartbeat CPU 0 instructions: 100000000 cycles: 394384997 heartbeat IPC: 0.135392 cumulative IPC: 0.13287 (Simulation time: 0 hr 11 min 51 sec) 
Finished CPU 0 instructions: 50000000 cycles: 376306722 cumulative IPC: 0.13287 (Simulation time: 0 hr 11 min 51 sec) 

ChampSim completed all CPUs

Total Simulation Statistics (not including warmup)

CPU 0 cumulative IPC: 0.13287 instructions: 50000000 cycles: 376306722
ITLB TOTAL     ACCESS:   10948284  HIT:   10948284  MISS:          0  HIT %:        100  MISS %:          0   MPKI: 0
ITLB LOAD      ACCESS:          0  HIT:          0  MISS:          0  HIT %:       -nan  MISS %:       -nan   MPKI: 0
ITLB RFO       ACCESS:          0  HIT:          0  MISS:          0  HIT %:       -nan  MISS %:       -nan   MPKI: 0
ITLB PREFETCH  ACCESS:          0  HIT:          0  MISS:          0  HIT %:       -nan  MISS %:       -nan   MPKI: 0
ITLB WRITEBACK ACCESS:          0  HIT:          0  MISS:          0  HIT %:       -nan  MISS %:       -nan   MPKI: 0
DTLB TOTAL     ACCESS:   16009669  HIT:   15814203  MISS:     195466  HIT %:    98.7791  MISS %:    1.22092   MPKI: 3.90932
DTLB LOAD      ACCESS:          0  HIT:          0  MISS:          0  HIT %:       -nan  MISS %:       -nan   MPKI: 0
DTLB RFO       ACCESS:          0  HIT:          0  MISS:          0  HIT %:       -nan  MISS %:       -nan   MPKI: 0
DTLB PREFETCH  ACCESS:          0  HIT:          0  MISS:          0  HIT %:       -nan  MISS %:       -nan   MPKI: 0
DTLB WRITEBACK ACCESS:          0  HIT:          0  MISS:          0  HIT %:       -nan  MISS %:       -nan   MPKI: 0
STLB TOTAL     ACCESS:     195466  HIT:     190988  MISS:       4478  HIT %:    97.7091  MISS %:    2.29094   MPKI: 0.08956
STLB LOAD      ACCESS:          0  HIT:          0  MISS:          0  HIT %:       -nan  MISS %:       -nan   MPKI: 0
STLB RFO       ACCESS:          0  HIT:          0  MISS:          0  HIT %:       -nan  MISS %:       -nan   MPKI: 0
STLB PREFETCH  ACCESS:          0  HIT:          0  MISS:          0  HIT %:       -nan  MISS %:       -nan   MPKI: 0
STLB WRITEBACK ACCESS:          0  HIT:          0  MISS:          0  HIT %:       -nan  MISS %:       -nan   MPKI: 0
L1D TOTAL     ACCESS:   18190813  HIT:   10560342  MISS:    7630471  HIT %:    58.0532  MISS %:    41.9468   MPKI: 152.609
L1D LOAD      ACCESS:   15413658  HIT:    7937393  MISS:    7476265  HIT %:    51.4958  MISS %:    48.5042   MPKI: 149.525
L1D RFO       ACCESS:    2777155  HIT:    2622949  MISS:     154206  HIT %:    94.4473  MISS %:    5.55266   MPKI: 3.08412
L1D PREFETCH  ACCESS:          0  HIT:          0  MISS:          0  HIT %:       -nan  MISS %:       -nan   MPKI: 0
L1D WRITEBACK ACCESS:          0  HIT:          0  MISS:          0  HIT %:       -nan  MISS %:       -nan   MPKI: 0
L1I TOTAL     ACCESS:   13183126  HIT:   13183126  MISS:          0  HIT %:        100  MISS %:          0   MPKI: 0
L1I LOAD      ACCESS:   13183126  HIT:   13183126  MISS:          0  HIT %:        100  MISS %:          0   MPKI: 0
L1I RFO       ACCESS:          0  HIT:          0  MISS:          0  HIT %:       -nan  MISS %:       -nan   MPKI: 0
L1I PREFETCH  ACCESS:          0  HIT:          0  MISS:          0  HIT %:       -nan  MISS %:       -nan   MPKI: 0
L1I WRITEBACK ACCESS:          0  HIT:          0  MISS:          0  HIT %:       -nan  MISS %:       -nan   MPKI: 0
L2C TOTAL     ACCESS:    7826851  HIT:     195796  MISS:    7631055  HIT %:    2.50159  MISS %:    97.4984   MPKI: 152.621
L2C LOAD      ACCESS:    7476264  HIT:        647  MISS:    7475617  HIT %: 0.00865406  MISS %:    99.9913   MPKI: 149.512
L2C RFO       ACCESS:     154206  HIT:        102  MISS:     154104  HIT %:  0.0661453  MISS %:    99.9339   MPKI: 3.08208
L2C PREFETCH  ACCESS:          0  HIT:          0  MISS:          0  HIT %:       -nan  MISS %:       -nan   MPKI: 0
L2C WRITEBACK ACCESS:     191899  HIT:     191651  MISS:        248  HIT %:    99.8708  MISS %:   0.129235   MPKI: 0.00496
PSCL5 TOTAL     ACCESS:       4478  HIT:       4478  MISS:          0  HIT %:        100  MISS %:          0   MPKI: 0
PSCL5 LOAD      ACCESS:          0  HIT:          0  MISS:          0  HIT %:       -nan  MISS %:       -nan   MPKI: 0
PSCL5 RFO       ACCESS:          0  HIT:          0  MISS:          0  HIT %:       -nan  MISS %:       -nan   MPKI: 0
PSCL5 PREFETCH  ACCESS:          0  HIT:          0  MISS:          0  HIT %:       -nan  MISS %:       -nan   MPKI: 0
PSCL5 WRITEBACK ACCESS:          0  HIT:          0  MISS:          0  HIT %:       -nan  MISS %:       -nan   MPKI: 0
PSCL4 TOTAL     ACCESS:       4478  HIT:       4478  MISS:          0  HIT %:        100  MISS %:          0   MPKI: 0
PSCL4 LOAD      ACCESS:          0  HIT:          0  MISS:          0  HIT %:       -nan  MISS %:       -nan   MPKI: 0
PSCL4 RFO       ACCESS:          0  HIT:          0  MISS:          0  HIT %:       -nan  MISS %:       -nan   MPKI: 0
PSCL4 PREFETCH  ACCESS:          0  HIT:          0  MISS:          0  HIT %:       -nan  MISS %:       -nan   MPKI: 0
PSCL4 WRITEBACK ACCESS:          0  HIT:          0  MISS:          0  HIT %:       -nan  MISS %:       -nan   MPKI: 0
PSCL3 TOTAL     ACCESS:       4478  HIT:       4478  MISS:          0  HIT %:        100  MISS %:          0   MPKI: 0
PSCL3 LOAD      ACCESS:          0  HIT:          0  MISS:          0  HIT %:       -nan  MISS %:       -nan   MPKI: 0
PSCL3 RFO       ACCESS:          0  HIT:          0  MISS:          0  HIT %:       -nan  MISS %:       -nan   MPKI: 0
PSCL3 PREFETCH  ACCESS:          0  HIT:          0  MISS:          0  HIT %:       -nan  MISS %:       -nan   MPKI: 0
PSCL3 WRITEBACK ACCESS:          0  HIT:          0  MISS:          0  HIT %:       -nan  MISS %:       -nan   MPKI: 0
PSCL2 TOTAL     ACCESS:       4478  HIT:       4465  MISS:         13  HIT %:    99.7097  MISS %:   0.290308   MPKI: 0.00026
PSCL2 LOAD      ACCESS:          0  HIT:          0  MISS:          0  HIT %:       -nan  MISS %:       -nan   MPKI: 0
PSCL2 RFO       ACCESS:          0  HIT:          0  MISS:          0  HIT %:       -nan  MISS %:       -nan   MPKI: 0
PSCL2 PREFETCH  ACCESS:          0  HIT:          0  MISS:          0  HIT %:       -nan  MISS %:       -nan   MPKI: 0
PSCL2 WRITEBACK ACCESS:          0  HIT:          0  MISS:          0  HIT %:       -nan  MISS %:       -nan   MPKI: 0
LLC TOTAL     ACCESS:    7822813  HIT:    1181612  MISS:    6641201  HIT %:    15.1047  MISS %:    84.8953   MPKI: 132.824
LLC LOAD      ACCESS:    7475617  HIT:     989355  MISS:    6486262  HIT %:    13.2344  MISS %:    86.7656   MPKI: 129.725
LLC RFO       ACCESS:     154104  HIT:        332  MISS:     153772  HIT %:   0.215439  MISS %:    99.7846   MPKI: 3.07544
LLC PREFETCH  ACCESS:          0  HIT:          0  MISS:          0  HIT %:       -nan  MISS %:       -nan   MPKI: 0
LLC WRITEBACK ACCESS:     192006  HIT:     191835  MISS:        171  HIT %:    99.9109  MISS %:  0.0890597   MPKI: 0.00342

RAW hits: 2012582
Loads Generated: 22575660
Loads sent to L1D: 20563081
Stores Generated: 3711166
Stores sent to L1D: 3711168

CPU 1 cumulative IPC: 0.413106 instructions: 155454592 cycles: 376306723
ITLB TOTAL     ACCESS:   24603479  HIT:   24529293  MISS:      74186  HIT %:    99.6985  MISS %:   0.301526   MPKI: 0.47722
ITLB LOAD      ACCESS:          0  HIT:          0  MISS:          0  HIT %:       -nan  MISS %:       -nan   MPKI: 0
ITLB RFO       ACCESS:          0  HIT:          0  MISS:          0  HIT %:       -nan  MISS %:       -nan   MPKI: 0
ITLB PREFETCH  ACCESS:          0  HIT:          0  MISS:          0  HIT %:       -nan  MISS %:       -nan   MPKI: 0
ITLB WRITEBACK ACCESS:          0  HIT:          0  MISS:          0  HIT %:       -nan  MISS %:       -nan   MPKI: 0
DTLB TOTAL     ACCESS:   44608071  HIT:   44091613  MISS:     516458  HIT %:    98.8422  MISS %:    1.15777   MPKI: 3.32224
DTLB LOAD      ACCESS:          0  HIT:          0  MISS:          0  HIT %:       -nan  MISS %:       -nan   MPKI: 0
DTLB RFO       ACCESS:          0  HIT:          0  MISS:          0  HIT %:       -nan  MISS %:       -nan   MPKI: 0
DTLB PREFETCH  ACCESS:          0  HIT:          0  MISS:          0  HIT %:       -nan  MISS %:       -nan   MPKI: 0
DTLB WRITEBACK ACCESS:          0  HIT:          0  MISS:          0  HIT %:       -nan  MISS %:       -nan   MPKI: 0
STLB TOTAL     ACCESS:     590644  HIT:     567492  MISS:      23152  HIT %:    96.0802  MISS %:    3.91979   MPKI: 0.148931
STLB LOAD      ACCESS:          0  HIT:          0  MISS:          0  HIT %:       -nan  MISS %:       -nan   MPKI: 0
STLB RFO       ACCESS:          0  HIT:          0  MISS:          0  HIT %:       -nan  MISS %:       -nan   MPKI: 0
STLB PREFETCH  ACCESS:          0  HIT:          0  MISS:          0  HIT %:       -nan  MISS %:       -nan   MPKI: 0
STLB WRITEBACK ACCESS:          0  HIT:          0  MISS:          0  HIT %:       -nan  MISS %:       -nan   MPKI: 0
L1D TOTAL     ACCESS:   59150184  HIT:   58585966  MISS:     564218  HIT %:    99.0461  MISS %:   0.953874   MPKI: 3.62947
L1D LOAD      ACCESS:   29570279  HIT:   29054264  MISS:     516015  HIT %:     98.255  MISS %:    1.74505   MPKI: 3.31939
L1D RFO       ACCESS:   29579905  HIT:   29531702  MISS:      48203  HIT %:     99.837  MISS %:   0.162959   MPKI: 0.310078
L1D PREFETCH  ACCESS:          0  HIT:          0  MISS:          0  HIT %:       -nan  MISS %:       -nan   MPKI: 0
L1D WRITEBACK ACCESS:          0  HIT:          0  MISS:          0  HIT %:       -nan  MISS %:       -nan   MPKI: 0
L1I TOTAL     ACCESS:   27599863  HIT:   26730137  MISS:     869726  HIT %:    96.8488  MISS %:     3.1512   MPKI: 5.59473
L1I LOAD      ACCESS:   27599863  HIT:   26730137  MISS:     869726  HIT %:    96.8488  MISS %:     3.1512   MPKI: 5.59473
L1I RFO       ACCESS:          0  HIT:          0  MISS:          0  HIT %:       -nan  MISS %:       -nan   MPKI: 0
L1I PREFETCH  ACCESS:          0  HIT:          0  MISS:          0  HIT %:       -nan  MISS %:       -nan   MPKI: 0
L1I WRITEBACK ACCESS:          0  HIT:          0  MISS:          0  HIT %:       -nan  MISS %:       -nan   MPKI: 0
L2C TOTAL     ACCESS:    1612421  HIT:    1328320  MISS:     284101  HIT %:    82.3805  MISS %:    17.6195   MPKI: 1.82755
L2C LOAD      ACCESS:    1385740  HIT:    1128886  MISS:     256854  HIT %:    81.4645  MISS %:    18.5355   MPKI: 1.65228
L2C RFO       ACCESS:      48203  HIT:      32779  MISS:      15424  HIT %:     68.002  MISS %:     31.998   MPKI: 0.0992187
L2C PREFETCH  ACCESS:          0  HIT:          0  MISS:          0  HIT %:       -nan  MISS %:       -nan   MPKI: 0
L2C WRITEBACK ACCESS:     150905  HIT:     150176  MISS:        729  HIT %:    99.5169  MISS %:   0.483085   MPKI: 0.00468947
PSCL5 TOTAL     ACCESS:      23152  HIT:      23152  MISS:          0  HIT %:        100  MISS %:          0   MPKI: 0
PSCL5 LOAD      ACCESS:          0  HIT:          0  MISS:          0  HIT %:       -nan  MISS %:       -nan   MPKI: 0
PSCL5 RFO       ACCESS:          0  HIT:          0  MISS:          0  HIT %:       -nan  MISS %:       -nan   MPKI: 0
PSCL5 PREFETCH  ACCESS:          0  HIT:          0  MISS:          0  HIT %:       -nan  MISS %:       -nan   MPKI: 0
PSCL5 WRITEBACK ACCESS:          0  HIT:          0  MISS:          0  HIT %:       -nan  MISS %:       -nan   MPKI: 0
PSCL4 TOTAL     ACCESS:      23152  HIT:      23152  MISS:          0  HIT %:        100  MISS %:          0   MPKI: 0
PSCL4 LOAD      ACCESS:          0  HIT:          0  MISS:          0  HIT %:       -nan  MISS %:       -nan   MPKI: 0
PSCL4 RFO       ACCESS:          0  HIT:          0  MISS:          0  HIT %:       -nan  MISS %:       -nan   MPKI: 0
PSCL4 PREFETCH  ACCESS:          0  HIT:          0  MISS:          0  HIT %:       -nan  MISS %:       -nan   MPKI: 0
PSCL4 WRITEBACK ACCESS:          0  HIT:          0  MISS:          0  HIT %:       -nan  MISS %:       -nan   MPKI: 0
PSCL3 TOTAL     ACCESS:      23152  HIT:      23152  MISS:          0  HIT %:        100  MISS %:          0   MPKI: 0
PSCL3 LOAD      ACCESS:          0  HIT:          0  MISS:          0  HIT %:       -nan  MISS %:       -nan   MPKI: 0
PSCL3 RFO       ACCESS:          0  HIT:          0  MISS:          0  HIT %:       -nan  MISS %:       -nan   MPKI: 0
PSCL3 PREFETCH  ACCESS:          0  HIT:          0  MISS:          0  HIT %:       -nan  MISS %:       -nan   MPKI: 0
PSCL3 WRITEBACK ACCESS:          0  HIT:          0  MISS:          0  HIT %:       -nan  MISS %:       -nan   MPKI: 0
PSCL2 TOTAL     ACCESS:      23152  HIT:      18678  MISS:       4474  HIT %:    80.6755  MISS %:    19.3245   MPKI: 0.0287801
PSCL2 LOAD      ACCESS:          0  HIT:          0  MISS:          0  HIT %:       -nan  MISS %:       -nan   MPKI: 0
PSCL2 RFO       ACCESS:          0  HIT:          0  MISS:          0  HIT %:       -nan  MISS %:       -nan   MPKI: 0
PSCL2 PREFETCH  ACCESS:          0  HIT:          0  MISS:          0  HIT %:       -nan  MISS %:       -nan   MPKI: 0
PSCL2 WRITEBACK ACCESS:          0  HIT:          0  MISS:          0  HIT %:       -nan  MISS %:       -nan   MPKI: 0
LLC TOTAL     ACCESS:     338738  HIT:     125957  MISS:     212781  HIT %:    37.1842  MISS %:    62.8158   MPKI: 1.36877
LLC LOAD      ACCESS:     256854  HIT:      59327  MISS:     197527  HIT %:    23.0976  MISS %:    76.9024   MPKI: 1.27064
LLC RFO       ACCESS:      15424  HIT:       5104  MISS:      10320  HIT %:    33.0913  MISS %:    66.9087   MPKI: 0.0663859
LLC PREFETCH  ACCESS:          0  HIT:          0  MISS:          0  HIT %:       -nan  MISS %:       -nan   MPKI: 0
LLC WRITEBACK ACCESS:      55366  HIT:      54892  MISS:        474  HIT %:    99.1439  MISS %:   0.856121   MPKI: 0.00304912

RAW hits: 2087853
Loads Generated: 39162384
Loads sent to L1D: 37074531
Stores Generated: 30006717
Stores sent to L1D: 30006716

Region of Interest Statistics

CPU 0 cumulative IPC: 0.13287 instructions: 50000000 cycles: 376306722
ITLB TOTAL     ACCESS:   10948284  HIT:   10948284  MISS:          0  HIT %:        100  MISS %:          0   MPKI: 0
ITLB LOAD TRANSLATION ACCESS:   10948284  HIT:   10948284  MISS:          0  HIT %:        100  MISS %:          0   MPKI: 0
ITLB PREFETCH  REQUESTED:          0  ISSUED:          0  USEFUL:          0  USELESS:          0
ITLB USEFUL LOAD PREFETCHES:          0 PREFETCH ISSUED TO LOWER LEVEL:          0  ACCURACY: -nan
ITLB TIMELY PREFETCHES:          0 LATE PREFETCHES: 0 DROPPED PREFETCHES: 0
ITLB PREFETCHES SAME FILL-ORIGIN LEVEL: 0 DIFFERENT FILL-ORIGIN LEVEL: 0
ITLB AVERAGE MISS LATENCY: -nan cycles
ITLB RQ	ACCESS:   13183128	FORWARD:          0	MERGED:    2234844	TO_CACHE:   10948284

DTLB TOTAL     ACCESS:   16009669  HIT:   15814203  MISS:     195466  HIT %:    98.7791  MISS %:    1.22092   MPKI: 3.90932
DTLB LOAD TRANSLATION ACCESS:   16009669  HIT:   15814203  MISS:     195466  HIT %:    98.7791  MISS %:    1.22092   MPKI: 3.90932
DTLB PREFETCH  REQUESTED:          0  ISSUED:          0  USEFUL:          0  USELESS:          0
DTLB USEFUL LOAD PREFETCHES:          0 PREFETCH ISSUED TO LOWER LEVEL:          0  ACCURACY: -nan
DTLB TIMELY PREFETCHES:          0 LATE PREFETCHES: 0 DROPPED PREFETCHES: 0
DTLB PREFETCHES SAME FILL-ORIGIN LEVEL: 0 DIFFERENT FILL-ORIGIN LEVEL: 0
DTLB AVERAGE MISS LATENCY: 13.0159 cycles
DTLB RQ	ACCESS:   19610540	FORWARD:          0	MERGED:    3597593	TO_CACHE:   16012947

STLB TOTAL     ACCESS:     195466  HIT:     190988  MISS:       4478  HIT %:    97.7091  MISS %:    2.29094   MPKI: 0.08956
STLB LOAD TRANSLATION ACCESS:     195466  HIT:     190988  MISS:       4478  HIT %:    97.7091  MISS %:    2.29094   MPKI: 0.08956
STLB PREFETCH  REQUESTED:          0  ISSUED:          0  USEFUL:          0  USELESS:          0
STLB USEFUL LOAD PREFETCHES:          0 PREFETCH ISSUED TO LOWER LEVEL:          0  ACCURACY: -nan
STLB TIMELY PREFETCHES:          0 LATE PREFETCHES: 0 DROPPED PREFETCHES: 0
STLB PREFETCHES SAME FILL-ORIGIN LEVEL: 0 DIFFERENT FILL-ORIGIN LEVEL: 0
STLB AVERAGE MISS LATENCY: 174.93 cycles
STLB RQ	ACCESS:     195466	FORWARD:          0	MERGED:          0	TO_CACHE:     195466

STLB Hit, L1D data hit: 0
STLB Hit, L2C data hit: 0
STLB Hit, LLC data hit: 0
STLB Hit, LLC data miss: 0
STLB STLB hints to L2: 0
L1D TOTAL     ACCESS:   18190813  HIT:   10560342  MISS:    7630471  HIT %:    58.0532  MISS %:    41.9468   MPKI: 152.609
L1D LOAD      ACCESS:   15413658  HIT:    7937393  MISS:    7476265  HIT %:    51.4958  MISS %:    48.5042   MPKI: 149.525
L1D RFO       ACCESS:    2777155  HIT:    2622949  MISS:     154206  HIT %:    94.4473  MISS %:    5.55266   MPKI: 3.08412
L1D PREFETCH  REQUESTED:          0  ISSUED:          0  USEFUL:          0  USELESS:          0
L1D USEFUL LOAD PREFETCHES:          0 PREFETCH ISSUED TO LOWER LEVEL:          0  ACCURACY: -nan
L1D TIMELY PREFETCHES:          0 LATE PREFETCHES: 0 DROPPED PREFETCHES: 0
L1D PREFETCHES SAME FILL-ORIGIN LEVEL: 0 DIFFERENT FILL-ORIGIN LEVEL: 0
L1D AVERAGE MISS LATENCY: 149.148 cycles
L1D RQ	ACCESS:   20563081	FORWARD:          0	MERGED:    4035540	TO_CACHE:   16498039
L1D WQ	ACCESS:    3711168	FORWARD:      29502	MERGED:     598667	TO_CACHE:    3112501

L1D UNIQUE REGIONS ACCESSED: 0
L1D REGIONS CONFLICTS: 0
L1D Cross Page Prefetch Requests: 0
L1D Same Page Prefetch Requests: 0
L1D ROI Sum of L1D PQ occupancy: 0
L1D PREFETCHES PUSHED FROM L2C: 0
L1I TOTAL     ACCESS:   13183126  HIT:   13183126  MISS:          0  HIT %:        100  MISS %:          0   MPKI: 0
L1I LOAD      ACCESS:   13183126  HIT:   13183126  MISS:          0  HIT %:        100  MISS %:          0   MPKI: 0
L1I PREFETCH  REQUESTED:          0  ISSUED:          0  USEFUL:          0  USELESS:          0
L1I USEFUL LOAD PREFETCHES:          0 PREFETCH ISSUED TO LOWER LEVEL:          0  ACCURACY: -nan
L1I TIMELY PREFETCHES:          0 LATE PREFETCHES: 0 DROPPED PREFETCHES: 0
L1I PREFETCHES SAME FILL-ORIGIN LEVEL: 0 DIFFERENT FILL-ORIGIN LEVEL: 0
L1I AVERAGE MISS LATENCY: -nan cycles
L1I RQ	ACCESS:   18795789	FORWARD:          0	MERGED:    5612661	TO_CACHE:   13183128

BTB TOTAL     ACCESS:    8795734  HIT:    8795702  MISS:         32  HIT %:    99.9996  MISS %: 0.000363813   MPKI: 0.00064
BTB BRANCH_DIRECT_JUMP	ACCESS:    2039127  HIT:    2039121  MISS:          6
BTB BRANCH_INDIRECT	ACCESS:          0  HIT:          0  MISS:          0
BTB BRANCH_CONDITIONAL	ACCESS:    6755823  HIT:    6755801  MISS:         22
BTB BRANCH_DIRECT_CALL	ACCESS:        392  HIT:        390  MISS:          2
BTB BRANCH_INDIRECT_CALL	ACCESS:          0  HIT:          0  MISS:          0
BTB BRANCH_RETURN	ACCESS:        392  HIT:        390  MISS:          2
BTB BRANCH_OTHER ACCESS:          0  HIT:          0  MISS:          0

L2C TOTAL     ACCESS:    7826851  HIT:     195796  MISS:    7631055  HIT %:    2.50159  MISS %:    97.4984   MPKI: 152.621
L2C LOAD      ACCESS:    7476264  HIT:        647  MISS:    7475617  HIT %: 0.00865406  MISS %:    99.9913   MPKI: 149.512
L2C DATA LOAD MPKI: 149.512
L2C INSTRUCTION LOAD MPKI: 0
L2C RFO       ACCESS:     154206  HIT:        102  MISS:     154104  HIT %:  0.0661453  MISS %:    99.9339   MPKI: 3.08208
L2C WRITEBACK ACCESS:     191899  HIT:     191651  MISS:        248  HIT %:    99.8708  MISS %:   0.129235   MPKI: 0.00496
L2C LOAD TRANSLATION ACCESS:       4482  HIT:       3396  MISS:       1086  HIT %:    75.7697  MISS %:    24.2303   MPKI: 0.02172
L2C PREFETCH  REQUESTED:          0  ISSUED:          0  USEFUL:          0  USELESS:          0
L2C USEFUL LOAD PREFETCHES:          0 PREFETCH ISSUED TO LOWER LEVEL:          0  ACCURACY: -nan
L2C TIMELY PREFETCHES:          0 LATE PREFETCHES: 0 DROPPED PREFETCHES: 0
L2C PREFETCHES SAME FILL-ORIGIN LEVEL: 0 DIFFERENT FILL-ORIGIN LEVEL: 0
L2C AVERAGE MISS LATENCY: 134.037 cycles
L2C RQ	ACCESS:    7634953	FORWARD:          0	MERGED:          0	TO_CACHE:    7634953
L2C WQ	ACCESS:     191899	FORWARD:          0	MERGED:          0	TO_CACHE:     191899

L2C Instructions Evicting Data 0
L2C Translations Evicting Data 1086
L2C Data Evicting Data 7628632
L2C Instructions Evicting Instructions 0
L2C Translations Evicting Instructions 0
L2C Data Evicting Instructions 0
L2C Instructions Evicting Translations 0
L2C Translations Evicting Translations 0
L2C Data Evicting Translations 1089
L2C Dense regions hint from L2: 0
PSCL5 TOTAL     ACCESS:       4478  HIT:       4478  MISS:          0  HIT %:        100  MISS %:          0   MPKI: 0
PSCL5 LOAD TRANSLATION ACCESS:       4478  HIT:       4478  MISS:          0  HIT %:        100  MISS %:          0   MPKI: 0
PSCL5 PREFETCH  REQUESTED:          0  ISSUED:          0  USEFUL:          0  USELESS:          0
PSCL5 USEFUL LOAD PREFETCHES:          0 PREFETCH ISSUED TO LOWER LEVEL:          0  ACCURACY: -nan
PSCL5 TIMELY PREFETCHES:          0 LATE PREFETCHES: 0 DROPPED PREFETCHES: 0
PSCL5 PREFETCHES SAME FILL-ORIGIN LEVEL: 0 DIFFERENT FILL-ORIGIN LEVEL: 0

PSCL4 TOTAL     ACCESS:       4478  HIT:       4478  MISS:          0  HIT %:        100  MISS %:          0   MPKI: 0
PSCL4 LOAD TRANSLATION ACCESS:       4478  HIT:       4478  MISS:          0  HIT %:        100  MISS %:          0   MPKI: 0
PSCL4 PREFETCH  REQUESTED:          0  ISSUED:          0  USEFUL:          0  USELESS:          0
PSCL4 USEFUL LOAD PREFETCHES:          0 PREFETCH ISSUED TO LOWER LEVEL:          0  ACCURACY: -nan
PSCL4 TIMELY PREFETCHES:          0 LATE PREFETCHES: 0 DROPPED PREFETCHES: 0
PSCL4 PREFETCHES SAME FILL-ORIGIN LEVEL: 0 DIFFERENT FILL-ORIGIN LEVEL: 0

PSCL3 TOTAL     ACCESS:       4478  HIT:       4478  MISS:          0  HIT %:        100  MISS %:          0   MPKI: 0
PSCL3 LOAD TRANSLATION ACCESS:       4478  HIT:       4478  MISS:          0  HIT %:        100  MISS %:          0   MPKI: 0
PSCL3 PREFETCH  REQUESTED:          0  ISSUED:          0  USEFUL:          0  USELESS:          0
PSCL3 USEFUL LOAD PREFETCHES:          0 PREFETCH ISSUED TO LOWER LEVEL:          0  ACCURACY: -nan
PSCL3 TIMELY PREFETCHES:          0 LATE PREFETCHES: 0 DROPPED PREFETCHES: 0
PSCL3 PREFETCHES SAME FILL-ORIGIN LEVEL: 0 DIFFERENT FILL-ORIGIN LEVEL: 0

PSCL2 TOTAL     ACCESS:       4478  HIT:       4465  MISS:         13  HIT %:    99.7097  MISS %:   0.290308   MPKI: 0.00026
PSCL2 LOAD TRANSLATION ACCESS:       4478  HIT:       4465  MISS:         13  HIT %:    99.7097  MISS %:   0.290308   MPKI: 0.00026
PSCL2 PREFETCH  REQUESTED:          0  ISSUED:          0  USEFUL:          0  USELESS:          0
PSCL2 USEFUL LOAD PREFETCHES:          0 PREFETCH ISSUED TO LOWER LEVEL:          0  ACCURACY: -nan
PSCL2 TIMELY PREFETCHES:          0 LATE PREFETCHES: 0 DROPPED PREFETCHES: 0
PSCL2 PREFETCHES SAME FILL-ORIGIN LEVEL: 0 DIFFERENT FILL-ORIGIN LEVEL: 0

LLC TOTAL     ACCESS:    7822813  HIT:    1181612  MISS:    6641201  HIT %:    15.1047  MISS %:    84.8953   MPKI: 132.824
LLC LOAD      ACCESS:    7475617  HIT:     989355  MISS:    6486262  HIT %:    13.2344  MISS %:    86.7656   MPKI: 129.725
LLC RFO       ACCESS:     154104  HIT:        332  MISS:     153772  HIT %:   0.215439  MISS %:    99.7846   MPKI: 3.07544
LLC WRITEBACK ACCESS:     192006  HIT:     191835  MISS:        171  HIT %:    99.9109  MISS %:  0.0890597   MPKI: 0.00342
LLC LOAD TRANSLATION ACCESS:       1086  HIT:         90  MISS:        996  HIT %:    8.28729  MISS %:    91.7127   MPKI: 0.01992
LLC PREFETCH  REQUESTED:          0  ISSUED:          0  USEFUL:          0  USELESS:          0
LLC USEFUL LOAD PREFETCHES:          0 PREFETCH ISSUED TO LOWER LEVEL:          0  ACCURACY: -nan
LLC TIMELY PREFETCHES:          0 LATE PREFETCHES: 0 DROPPED PREFETCHES: 0
LLC PREFETCHES SAME FILL-ORIGIN LEVEL: 0 DIFFERENT FILL-ORIGIN LEVEL: 0
LLC AVERAGE MISS LATENCY: 125.448 cycles
LLC RQ	ACCESS:    7914180	FORWARD:          0	MERGED:          0	TO_CACHE:    7914180
LLC WQ	ACCESS:     247371	FORWARD:          0	MERGED:          0	TO_CACHE:     247371

LLC Dense regions hint to LLC: 0

RAW hits: 2012582
Loads Generated: 22575660
Loads sent to L1D: 20563081
Stores Generated: 3711166
Stores sent to L1D: 3711168
Major fault: 0 Minor fault: 9879
Allocated PAGES: 15800

CPU 1 cumulative IPC: 0.430035 instructions: 50000000 cycles: 116269697
ITLB TOTAL     ACCESS:    7818913  HIT:    7795802  MISS:      23111  HIT %:    99.7044  MISS %:   0.295578   MPKI: 0.46222
ITLB LOAD TRANSLATION ACCESS:    7818913  HIT:    7795802  MISS:      23111  HIT %:    99.7044  MISS %:   0.295578   MPKI: 0.46222
ITLB PREFETCH  REQUESTED:          0  ISSUED:          0  USEFUL:          0  USELESS:          0
ITLB USEFUL LOAD PREFETCHES:          0 PREFETCH ISSUED TO LOWER LEVEL:          0  ACCURACY: -nan
ITLB TIMELY PREFETCHES:          0 LATE PREFETCHES: 0 DROPPED PREFETCHES: 0
ITLB PREFETCHES SAME FILL-ORIGIN LEVEL: 0 DIFFERENT FILL-ORIGIN LEVEL: 0
ITLB AVERAGE MISS LATENCY: 31.6885 cycles
ITLB RQ	ACCESS:   27799345	FORWARD:          0	MERGED:    3169898	TO_CACHE:   24629447

DTLB TOTAL     ACCESS:   14129725  HIT:   13983252  MISS:     146473  HIT %:    98.9634  MISS %:    1.03663   MPKI: 2.92946
DTLB LOAD TRANSLATION ACCESS:   14129725  HIT:   13983252  MISS:     146473  HIT %:    98.9634  MISS %:    1.03663   MPKI: 2.92946
DTLB PREFETCH  REQUESTED:          0  ISSUED:          0  USEFUL:          0  USELESS:          0
DTLB USEFUL LOAD PREFETCHES:          0 PREFETCH ISSUED TO LOWER LEVEL:          0  ACCURACY: -nan
DTLB TIMELY PREFETCHES:          0 LATE PREFETCHES: 0 DROPPED PREFETCHES: 0
DTLB PREFETCHES SAME FILL-ORIGIN LEVEL: 0 DIFFERENT FILL-ORIGIN LEVEL: 0
DTLB AVERAGE MISS LATENCY: 46.2718 cycles
DTLB RQ	ACCESS:   59274587	FORWARD:          0	MERGED:   14652130	TO_CACHE:   44622457

STLB TOTAL     ACCESS:     169584  HIT:     162307  MISS:       7277  HIT %:    95.7089  MISS %:    4.29109   MPKI: 0.14554
STLB LOAD TRANSLATION ACCESS:     169584  HIT:     162307  MISS:       7277  HIT %:    95.7089  MISS %:    4.29109   MPKI: 0.14554
STLB PREFETCH  REQUESTED:          0  ISSUED:          0  USEFUL:          0  USELESS:          0
STLB USEFUL LOAD PREFETCHES:          0 PREFETCH ISSUED TO LOWER LEVEL:          0  ACCURACY: -nan
STLB TIMELY PREFETCHES:          0 LATE PREFETCHES: 0 DROPPED PREFETCHES: 0
STLB PREFETCHES SAME FILL-ORIGIN LEVEL: 0 DIFFERENT FILL-ORIGIN LEVEL: 0
STLB AVERAGE MISS LATENCY: 299.403 cycles
STLB RQ	ACCESS:     590644	FORWARD:          0	MERGED:          0	TO_CACHE:     590644

STLB Hit, L1D data hit: 0
STLB Hit, L2C data hit: 0
STLB Hit, LLC data hit: 0
STLB Hit, LLC data miss: 0
STLB STLB hints to L2: 0
L1D TOTAL     ACCESS:   19089071  HIT:   18923378  MISS:     165693  HIT %:     99.132  MISS %:   0.867999   MPKI: 3.31386
L1D LOAD      ACCESS:    9371361  HIT:    9223397  MISS:     147964  HIT %:    98.4211  MISS %:     1.5789   MPKI: 2.95928
L1D RFO       ACCESS:    9717710  HIT:    9699981  MISS:      17729  HIT %:    99.8176  MISS %:    0.18244   MPKI: 0.35458
L1D PREFETCH  REQUESTED:          0  ISSUED:          0  USEFUL:          0  USELESS:          0
L1D USEFUL LOAD PREFETCHES:          0 PREFETCH ISSUED TO LOWER LEVEL:          0  ACCURACY: -nan
L1D TIMELY PREFETCHES:          0 LATE PREFETCHES: 0 DROPPED PREFETCHES: 0
L1D PREFETCHES SAME FILL-ORIGIN LEVEL: 0 DIFFERENT FILL-ORIGIN LEVEL: 0
L1D AVERAGE MISS LATENCY: 313.542 cycles
L1D RQ	ACCESS:   37074531	FORWARD:          0	MERGED:    6655613	TO_CACHE:   29610943
L1D WQ	ACCESS:   30006716	FORWARD:     807975	MERGED:     343072	TO_CACHE:   29663644

L1D UNIQUE REGIONS ACCESSED: 0
L1D REGIONS CONFLICTS: 0
L1D Cross Page Prefetch Requests: 0
L1D Same Page Prefetch Requests: 0
L1D ROI Sum of L1D PQ occupancy: 0
L1D PREFETCHES PUSHED FROM L2C: 0
L1I TOTAL     ACCESS:    8757673  HIT:    8498164  MISS:     259509  HIT %:    97.0368  MISS %:    2.96322   MPKI: 5.19018
L1I LOAD      ACCESS:    8757673  HIT:    8498164  MISS:     259509  HIT %:    97.0368  MISS %:    2.96322   MPKI: 5.19018
L1I PREFETCH  REQUESTED:          0  ISSUED:          0  USEFUL:          0  USELESS:          0
L1I USEFUL LOAD PREFETCHES:          0 PREFETCH ISSUED TO LOWER LEVEL:          0  ACCURACY: -nan
L1I TIMELY PREFETCHES:          0 LATE PREFETCHES: 0 DROPPED PREFETCHES: 0
L1I PREFETCHES SAME FILL-ORIGIN LEVEL: 0 DIFFERENT FILL-ORIGIN LEVEL: 0
L1I AVERAGE MISS LATENCY: 59.4086 cycles
L1I RQ	ACCESS:   43870358	FORWARD:          0	MERGED:   16071013	TO_CACHE:   27799345

BTB TOTAL     ACCESS:    6563009  HIT:    6161935  MISS:     401074  HIT %:    93.8889  MISS %:    6.11113   MPKI: 8.02148
BTB BRANCH_DIRECT_JUMP	ACCESS:    1054252  HIT:    1050871  MISS:       3381
BTB BRANCH_INDIRECT	ACCESS:     320995  HIT:      98493  MISS:     222502
BTB BRANCH_CONDITIONAL	ACCESS:    4218169  HIT:    4208721  MISS:       9448
BTB BRANCH_DIRECT_CALL	ACCESS:     379085  HIT:     376628  MISS:       2457
BTB BRANCH_INDIRECT_CALL	ACCESS:     105712  HIT:      11528  MISS:      94184
BTB BRANCH_RETURN	ACCESS:     484796  HIT:     415694  MISS:      69102
BTB BRANCH_OTHER ACCESS:          0  HIT:          0  MISS:          0

L2C TOTAL     ACCESS:     482596  HIT:     396676  MISS:      85920  HIT %:    82.1963  MISS %:    17.8037   MPKI: 1.7184
L2C LOAD      ACCESS:     407473  HIT:     330368  MISS:      77105  HIT %:    81.0773  MISS %:    18.9227   MPKI: 1.5421
L2C DATA LOAD MPKI: 1.3356
L2C INSTRUCTION LOAD MPKI: 0.2065
L2C RFO       ACCESS:      17729  HIT:      12554  MISS:       5175  HIT %:    70.8105  MISS %:    29.1895   MPKI: 0.1035
L2C WRITEBACK ACCESS:      48710  HIT:      48500  MISS:        210  HIT %:    99.5689  MISS %:   0.431123   MPKI: 0.0042
L2C LOAD TRANSLATION ACCESS:       8684  HIT:       5254  MISS:       3430  HIT %:    60.5021  MISS %:    39.4979   MPKI: 0.0686
L2C PREFETCH  REQUESTED:          0  ISSUED:          0  USEFUL:          0  USELESS:          0
L2C USEFUL LOAD PREFETCHES:          0 PREFETCH ISSUED TO LOWER LEVEL:          0  ACCURACY: -nan
L2C TIMELY PREFETCHES:          0 LATE PREFETCHES: 0 DROPPED PREFETCHES: 0
L2C PREFETCHES SAME FILL-ORIGIN LEVEL: 0 DIFFERENT FILL-ORIGIN LEVEL: 0
L2C AVERAGE MISS LATENCY: 556.937 cycles
L2C RQ	ACCESS:    1461517	FORWARD:          0	MERGED:          0	TO_CACHE:    1461516
L2C WQ	ACCESS:     150905	FORWARD:          1	MERGED:          0	TO_CACHE:     150905

L2C Instructions Evicting Data 26876
L2C Translations Evicting Data 9436
L2C Data Evicting Data 202816
L2C Instructions Evicting Instructions 4022
L2C Translations Evicting Instructions 1217
L2C Data Evicting Instructions 26357
L2C Instructions Evicting Translations 1257
L2C Translations Evicting Translations 312
L2C Data Evicting Translations 9352
L2C Dense regions hint from L2: 0
PSCL5 TOTAL     ACCESS:       7277  HIT:       7277  MISS:          0  HIT %:        100  MISS %:          0   MPKI: 0
PSCL5 LOAD TRANSLATION ACCESS:       7277  HIT:       7277  MISS:          0  HIT %:        100  MISS %:          0   MPKI: 0
PSCL5 PREFETCH  REQUESTED:          0  ISSUED:          0  USEFUL:          0  USELESS:          0
PSCL5 USEFUL LOAD PREFETCHES:          0 PREFETCH ISSUED TO LOWER LEVEL:          0  ACCURACY: -nan
PSCL5 TIMELY PREFETCHES:          0 LATE PREFETCHES: 0 DROPPED PREFETCHES: 0
PSCL5 PREFETCHES SAME FILL-ORIGIN LEVEL: 0 DIFFERENT FILL-ORIGIN LEVEL: 0

PSCL4 TOTAL     ACCESS:       7277  HIT:       7277  MISS:          0  HIT %:        100  MISS %:          0   MPKI: 0
PSCL4 LOAD TRANSLATION ACCESS:       7277  HIT:       7277  MISS:          0  HIT %:        100  MISS %:          0   MPKI: 0
PSCL4 PREFETCH  REQUESTED:          0  ISSUED:          0  USEFUL:          0  USELESS:          0
PSCL4 USEFUL LOAD PREFETCHES:          0 PREFETCH ISSUED TO LOWER LEVEL:          0  ACCURACY: -nan
PSCL4 TIMELY PREFETCHES:          0 LATE PREFETCHES: 0 DROPPED PREFETCHES: 0
PSCL4 PREFETCHES SAME FILL-ORIGIN LEVEL: 0 DIFFERENT FILL-ORIGIN LEVEL: 0

PSCL3 TOTAL     ACCESS:       7277  HIT:       7277  MISS:          0  HIT %:        100  MISS %:          0   MPKI: 0
PSCL3 LOAD TRANSLATION ACCESS:       7277  HIT:       7277  MISS:          0  HIT %:        100  MISS %:          0   MPKI: 0
PSCL3 PREFETCH  REQUESTED:          0  ISSUED:          0  USEFUL:          0  USELESS:          0
PSCL3 USEFUL LOAD PREFETCHES:          0 PREFETCH ISSUED TO LOWER LEVEL:          0  ACCURACY: -nan
PSCL3 TIMELY PREFETCHES:          0 LATE PREFETCHES: 0 DROPPED PREFETCHES: 0
PSCL3 PREFETCHES SAME FILL-ORIGIN LEVEL: 0 DIFFERENT FILL-ORIGIN LEVEL: 0

PSCL2 TOTAL     ACCESS:       7277  HIT:       5818  MISS:       1459  HIT %:    79.9505  MISS %:    20.0495   MPKI: 0.02918
PSCL2 LOAD TRANSLATION ACCESS:       7277  HIT:       5818  MISS:       1459  HIT %:    79.9505  MISS %:    20.0495   MPKI: 0.02918
PSCL2 PREFETCH  REQUESTED:          0  ISSUED:          0  USEFUL:          0  USELESS:          0
PSCL2 USEFUL LOAD PREFETCHES:          0 PREFETCH ISSUED TO LOWER LEVEL:          0  ACCURACY: -nan
PSCL2 TIMELY PREFETCHES:          0 LATE PREFETCHES: 0 DROPPED PREFETCHES: 0
PSCL2 PREFETCHES SAME FILL-ORIGIN LEVEL: 0 DIFFERENT FILL-ORIGIN LEVEL: 0

LLC TOTAL     ACCESS:     103267  HIT:      38593  MISS:      64674  HIT %:    37.3721  MISS %:    62.6279   MPKI: 1.29348
LLC LOAD      ACCESS:      77105  HIT:      17762  MISS:      59343  HIT %:    23.0361  MISS %:    76.9639   MPKI: 1.18686
LLC RFO       ACCESS:       5175  HIT:       1470  MISS:       3705  HIT %:    28.4058  MISS %:    71.5942   MPKI: 0.0741
LLC WRITEBACK ACCESS:      17557  HIT:      17436  MISS:        121  HIT %:    99.3108  MISS %:   0.689184   MPKI: 0.00242
LLC LOAD TRANSLATION ACCESS:       3430  HIT:       1925  MISS:       1505  HIT %:    56.1224  MISS %:    43.8776   MPKI: 0.0301
LLC PREFETCH  REQUESTED:          0  ISSUED:          0  USEFUL:          0  USELESS:          0
LLC USEFUL LOAD PREFETCHES:          0 PREFETCH ISSUED TO LOWER LEVEL:          0  ACCURACY: -nan
LLC TIMELY PREFETCHES:          0 LATE PREFETCHES: 0 DROPPED PREFETCHES: 0
LLC PREFETCHES SAME FILL-ORIGIN LEVEL: 0 DIFFERENT FILL-ORIGIN LEVEL: 0
LLC AVERAGE MISS LATENCY: 12882 cycles
LLC RQ	ACCESS:    7914180	FORWARD:          0	MERGED:          0	TO_CACHE:    7914180
LLC WQ	ACCESS:     247371	FORWARD:          0	MERGED:          0	TO_CACHE:     247371

LLC Dense regions hint to LLC: 0

RAW hits: 695984
Loads Generated: 12547109
Loads sent to L1D: 11851124
Stores Generated: 9859397
Stores sent to L1D: 9859396
Major fault: 0 Minor fault: 5921
Allocated PAGES: 15800

CPU 0 Self-eviction count: 6641201
CPU 1 Self-eviction count: 186995

DRAM Statistics
 CHANNEL 0
 RQ ROW_BUFFER_HIT:    4204818  ROW_BUFFER_MISS:    2648509
 DBUS_CONGESTED:      16346
 WQ ROW_BUFFER_HIT:     174619  ROW_BUFFER_MISS:      51578  FULL:          0

 AVG_CONGESTED_CYCLE: 4
 All warmup complete: 3
Channel 0 Bank busy for read cycles: 0
Channel 0 Bank busy for write cycles: 0
Channel 0
Rank 0
0banks busy for read cycles: 51947223
0banks busy for write cycles: 26062
1banks busy for read cycles: 111311370
1banks busy for write cycles: 9839515
2banks busy for read cycles: 92758117
2banks busy for write cycles: 4352627
3banks busy for read cycles: 56755007
3banks busy for write cycles: 2692330
4banks busy for read cycles: 24239128
4banks busy for write cycles: 1986219
5banks busy for read cycles: 6902153
5banks busy for write cycles: 1654842
6banks busy for read cycles: 1322816
6banks busy for write cycles: 1622449
7banks busy for read cycles: 149042
7banks busy for write cycles: 2311882
8banks busy for read cycles: 12414
8banks busy for write cycles: 6423527

CPU 0 Branch Prediction Accuracy: 97.6795% MPKI: 4.20592 Average ROB Occupancy at Mispredict: 52.4688
Branch types
NOT_BRANCH: 40937316 81.8746%
BRANCH_DIRECT_JUMP: 2039127 4.07825%
BRANCH_INDIRECT: 0 0%
BRANCH_CONDITIONAL: 7022764 14.0455%
BRANCH_DIRECT_CALL: 392 0.000784%
BRANCH_INDIRECT_CALL: 0 0%
BRANCH_RETURN: 392 0.000784%
BRANCH_OTHER: 0 0%


CPU 1 Branch Prediction Accuracy: 95.9663% MPKI: 6.44506 Average ROB Occupancy at Mispredict: 27.3654
Branch types
NOT_BRANCH: 128877772 82.9038%
BRANCH_DIRECT_JUMP: 3246313 2.08827%
BRANCH_INDIRECT: 944016 0.607262%
BRANCH_CONDITIONAL: 19143565 12.3146%
BRANCH_DIRECT_CALL: 1261137 0.811257%
BRANCH_INDIRECT_CALL: 360357 0.231809%
BRANCH_RETURN: 1621493 1.04307%
BRANCH_OTHER: 0 0%

DRAM PAGES: 1048576
Allocated PAGES: 15800
