
---------- Begin Simulation Statistics ----------
final_tick                               6948686824000                       # Number of ticks from beginning of simulation (restored from checkpoints and never reset)
host_inst_rate                                 307907                       # Simulator instruction rate (inst/s)
host_mem_usage                               17519924                       # Number of bytes of host memory used
host_op_rate                                   325427                       # Simulator op (including micro ops) rate (op/s)
host_seconds                                  6495.47                       # Real time elapsed on the host
host_tick_rate                              214990644                       # Simulator tick rate (ticks/s)
sim_freq                                 1000000000000                       # Frequency of simulated ticks
sim_insts                                  2000000027                       # Number of instructions simulated
sim_ops                                    2113800153                       # Number of ops (including micro ops) simulated
sim_seconds                                  1.396465                       # Number of seconds simulated
sim_ticks                                1396464730500                       # Number of ticks simulated
system.cpu.committedInsts                          20                       # Number of instructions committed
system.cpu.committedOps                            20                       # Number of ops (including micro ops) committed
system.cpu.dcache.MSHRs.leapFrogMisses        1269079                       # number of false blocks from MSHR
system.cpu.icache.MSHRs.leapFrogMisses              0                       # number of false blocks from MSHR
system.cpu.idle_fraction                            0                       # Percentage of idle cycles
system.cpu.not_idle_fraction                        1                       # Percentage of non-idle cycles
system.cpu.numCycles                               20                       # number of cpu cycles simulated
system.cpu.numWorkItemsCompleted                    0                       # number of work items this cpu completed
system.cpu.numWorkItemsStarted                      0                       # number of work items this cpu started
system.cpu.num_busy_cycles                         20                       # Number of busy cycles
system.cpu.num_conditional_control_insts            0                       # number of instructions that are conditional controls
system.cpu.num_fp_alu_accesses                      0                       # Number of float alu accesses
system.cpu.num_fp_insts                             0                       # number of float instructions
system.cpu.num_fp_register_reads                    0                       # number of times the floating registers were read
system.cpu.num_fp_register_writes                   0                       # number of times the floating registers were written
system.cpu.num_func_calls                           0                       # number of times a function call or return occured
system.cpu.num_idle_cycles                          0                       # Number of idle cycles
system.cpu.num_int_alu_accesses                     3                       # Number of integer alu accesses
system.cpu.num_int_insts                            3                       # number of integer instructions
system.cpu.num_int_register_reads                  60                       # number of times the integer registers were read
system.cpu.num_int_register_writes                 17                       # number of times the integer registers were written
system.cpu.num_load_insts                           2                       # Number of load instructions
system.cpu.num_mem_refs                             3                       # number of memory refs
system.cpu.num_store_insts                          1                       # Number of store instructions
system.cpu.num_vec_alu_accesses                    20                       # Number of vector alu accesses
system.cpu.num_vec_insts                           20                       # number of vector instructions
system.cpu.num_vec_register_reads                  35                       # number of times the vector registers were read
system.cpu.num_vec_register_writes                 19                       # number of times the vector registers were written
system.cpu.op_class::No_OpClass                     0      0.00%      0.00% # Class of executed instruction
system.cpu.op_class::IntAlu                         0      0.00%      0.00% # Class of executed instruction
system.cpu.op_class::IntMult                        0      0.00%      0.00% # Class of executed instruction
system.cpu.op_class::IntDiv                         0      0.00%      0.00% # Class of executed instruction
system.cpu.op_class::FloatAdd                       5     25.00%     25.00% # Class of executed instruction
system.cpu.op_class::FloatCmp                       0      0.00%     25.00% # Class of executed instruction
system.cpu.op_class::FloatCvt                       0      0.00%     25.00% # Class of executed instruction
system.cpu.op_class::FloatMult                     12     60.00%     85.00% # Class of executed instruction
system.cpu.op_class::FloatMultAcc                   0      0.00%     85.00% # Class of executed instruction
system.cpu.op_class::FloatDiv                       0      0.00%     85.00% # Class of executed instruction
system.cpu.op_class::FloatMisc                      0      0.00%     85.00% # Class of executed instruction
system.cpu.op_class::FloatSqrt                      0      0.00%     85.00% # Class of executed instruction
system.cpu.op_class::SimdAdd                        0      0.00%     85.00% # Class of executed instruction
system.cpu.op_class::SimdAddAcc                     0      0.00%     85.00% # Class of executed instruction
system.cpu.op_class::SimdAlu                        0      0.00%     85.00% # Class of executed instruction
system.cpu.op_class::SimdCmp                        0      0.00%     85.00% # Class of executed instruction
system.cpu.op_class::SimdCvt                        0      0.00%     85.00% # Class of executed instruction
system.cpu.op_class::SimdMisc                       0      0.00%     85.00% # Class of executed instruction
system.cpu.op_class::SimdMult                       0      0.00%     85.00% # Class of executed instruction
system.cpu.op_class::SimdMultAcc                    0      0.00%     85.00% # Class of executed instruction
system.cpu.op_class::SimdShift                      0      0.00%     85.00% # Class of executed instruction
system.cpu.op_class::SimdShiftAcc                   0      0.00%     85.00% # Class of executed instruction
system.cpu.op_class::SimdDiv                        0      0.00%     85.00% # Class of executed instruction
system.cpu.op_class::SimdSqrt                       0      0.00%     85.00% # Class of executed instruction
system.cpu.op_class::SimdFloatAdd                   0      0.00%     85.00% # Class of executed instruction
system.cpu.op_class::SimdFloatAlu                   0      0.00%     85.00% # Class of executed instruction
system.cpu.op_class::SimdFloatCmp                   0      0.00%     85.00% # Class of executed instruction
system.cpu.op_class::SimdFloatCvt                   0      0.00%     85.00% # Class of executed instruction
system.cpu.op_class::SimdFloatDiv                   0      0.00%     85.00% # Class of executed instruction
system.cpu.op_class::SimdFloatMisc                  0      0.00%     85.00% # Class of executed instruction
system.cpu.op_class::SimdFloatMult                  0      0.00%     85.00% # Class of executed instruction
system.cpu.op_class::SimdFloatMultAcc               0      0.00%     85.00% # Class of executed instruction
system.cpu.op_class::SimdFloatSqrt                  0      0.00%     85.00% # Class of executed instruction
system.cpu.op_class::SimdReduceAdd                  0      0.00%     85.00% # Class of executed instruction
system.cpu.op_class::SimdReduceAlu                  0      0.00%     85.00% # Class of executed instruction
system.cpu.op_class::SimdReduceCmp                  0      0.00%     85.00% # Class of executed instruction
system.cpu.op_class::SimdFloatReduceAdd             0      0.00%     85.00% # Class of executed instruction
system.cpu.op_class::SimdFloatReduceCmp             0      0.00%     85.00% # Class of executed instruction
system.cpu.op_class::SimdAes                        0      0.00%     85.00% # Class of executed instruction
system.cpu.op_class::SimdAesMix                     0      0.00%     85.00% # Class of executed instruction
system.cpu.op_class::SimdSha1Hash                   0      0.00%     85.00% # Class of executed instruction
system.cpu.op_class::SimdSha1Hash2                  0      0.00%     85.00% # Class of executed instruction
system.cpu.op_class::SimdSha256Hash                 0      0.00%     85.00% # Class of executed instruction
system.cpu.op_class::SimdSha256Hash2                0      0.00%     85.00% # Class of executed instruction
system.cpu.op_class::SimdShaSigma2                  0      0.00%     85.00% # Class of executed instruction
system.cpu.op_class::SimdShaSigma3                  0      0.00%     85.00% # Class of executed instruction
system.cpu.op_class::SimdPredAlu                    0      0.00%     85.00% # Class of executed instruction
system.cpu.op_class::MemRead                        2     10.00%     95.00% # Class of executed instruction
system.cpu.op_class::MemWrite                       1      5.00%    100.00% # Class of executed instruction
system.cpu.op_class::FloatMemRead                   0      0.00%    100.00% # Class of executed instruction
system.cpu.op_class::FloatMemWrite                  0      0.00%    100.00% # Class of executed instruction
system.cpu.op_class::IprAccess                      0      0.00%    100.00% # Class of executed instruction
system.cpu.op_class::InstPrefetch                   0      0.00%    100.00% # Class of executed instruction
system.cpu.op_class::total                         20                       # Class of executed instruction
system.cpu.workload.numSyscalls                     0                       # Number of system calls
system.l2.MSHRs.leapFrogMisses                   4318                       # number of false blocks from MSHR
system.membus.snoop_filter.hit_multi_requests            0                       # Number of requests hitting in the snoop filter with multiple (>1) holders of the requested data.
system.membus.snoop_filter.hit_multi_snoops            0                       # Number of snoops hitting in the snoop filter with multiple (>1) holders of the requested data.
system.membus.snoop_filter.hit_single_requests    108730269                       # Number of requests hitting in the snoop filter with a single holder of the requested data.
system.membus.snoop_filter.hit_single_snoops            0                       # Number of snoops hitting in the snoop filter with a single holder of the requested data.
system.membus.snoop_filter.tot_requests     217591659                       # Total number of requests made to the snoop filter.
system.membus.snoop_filter.tot_snoops               0                       # Total number of snoops made to the snoop filter.
system.switch_cpus.cc_regfile_reads          33134736                       # number of cc regfile reads
system.switch_cpus.cc_regfile_writes         33135144                       # number of cc regfile writes
system.switch_cpus.committedInsts          2000000007                       # Number of Instructions Simulated
system.switch_cpus.committedOps            2113800133                       # Number of Ops (including micro ops) Simulated
system.switch_cpus.cpi                       1.396465                       # CPI: Cycles Per Instruction
system.switch_cpus.cpi_total                 1.396465                       # CPI: Total CPI of All Threads
system.switch_cpus.idleCycles                    3997                       # Total number of cycles that the CPU has spent unscheduled due to idling
system.switch_cpus.iew.branchMispredicts      1142570                       # Number of branch mispredicts detected at execute
system.switch_cpus.iew.exec_branches         27484620                       # Number of branches executed
system.switch_cpus.iew.exec_nop                     0                       # number of nop insts executed
system.switch_cpus.iew.exec_rate             1.226739                       # Inst execution rate
system.switch_cpus.iew.exec_refs           1970976195                       # number of memory reference insts executed
system.switch_cpus.iew.exec_stores          293622650                       # Number of stores executed
system.switch_cpus.iew.exec_swp                     0                       # number of swp insts executed
system.switch_cpus.iew.iewBlockCycles       815312208                       # Number of cycles IEW is blocking
system.switch_cpus.iew.iewDispLoadInsts     395112779                       # Number of dispatched load instructions
system.switch_cpus.iew.iewDispNonSpecInsts            0                       # Number of dispatched non-speculative instructions
system.switch_cpus.iew.iewDispSquashedInsts          169                       # Number of squashed instructions skipped by dispatch
system.switch_cpus.iew.iewDispStoreInsts    304716783                       # Number of dispatched store instructions
system.switch_cpus.iew.iewDispatchedInsts   2177709515                       # Number of instructions dispatched to IQ
system.switch_cpus.iew.iewExecLoadInsts    1677353545                       # Number of load instructions executed
system.switch_cpus.iew.iewExecSquashedInsts      2788369                       # Number of squashed instructions skipped in execute
system.switch_cpus.iew.iewExecutedInsts    3426194384                       # Number of executed instructions
system.switch_cpus.iew.iewIQFullEvents        6754857                       # Number of times the IQ has become full, causing a stall
system.switch_cpus.iew.iewIdleCycles                0                       # Number of cycles IEW is idle
system.switch_cpus.iew.iewLSQFullEvents     277603012                       # Number of times the LSQ has become full, causing a stall
system.switch_cpus.iew.iewSquashCycles        1147210                       # Number of cycles IEW is squashing
system.switch_cpus.iew.iewUnblockCycles     293819626                       # Number of cycles IEW is unblocking
system.switch_cpus.iew.memOrderViolationEvents         9909                       # Number of memory order violations
system.switch_cpus.iew.predictedNotTakenIncorrect       516397                       # Number of branches that were predicted not taken incorrectly
system.switch_cpus.iew.predictedTakenIncorrect       626173                       # Number of branches that were predicted taken incorrectly
system.switch_cpus.iew.wb_consumers        2296737075                       # num instructions consuming a value
system.switch_cpus.iew.wb_count            2133159552                       # cumulative count of insts written-back
system.switch_cpus.iew.wb_fanout             0.708008                       # average fanout of values written-back
system.switch_cpus.iew.wb_producers        1626108139                       # num instructions producing a value
system.switch_cpus.iew.wb_rate               0.763771                       # insts written-back per cycle
system.switch_cpus.iew.wb_sent             2133676167                       # cumulative count of insts sent to commit
system.switch_cpus.int_regfile_reads       2186964804                       # number of integer regfile reads
system.switch_cpus.int_regfile_writes       188583442                       # number of integer regfile writes
system.switch_cpus.ipc                       0.716094                       # IPC: Instructions Per Cycle
system.switch_cpus.ipc_total                 0.716094                       # IPC: Total IPC of All Threads
system.switch_cpus.iq.FU_type_0::No_OpClass           12      0.00%      0.00% # Type of FU issued
system.switch_cpus.iq.FU_type_0::IntAlu     205188683      5.98%      5.98% # Type of FU issued
system.switch_cpus.iq.FU_type_0::IntMult            0      0.00%      5.98% # Type of FU issued
system.switch_cpus.iq.FU_type_0::IntDiv             0      0.00%      5.98% # Type of FU issued
system.switch_cpus.iq.FU_type_0::FloatAdd    760717150     22.18%     28.17% # Type of FU issued
system.switch_cpus.iq.FU_type_0::FloatCmp            0      0.00%     28.17% # Type of FU issued
system.switch_cpus.iq.FU_type_0::FloatCvt            0      0.00%     28.17% # Type of FU issued
system.switch_cpus.iq.FU_type_0::FloatMult    454153318     13.24%     41.41% # Type of FU issued
system.switch_cpus.iq.FU_type_0::FloatMultAcc            0      0.00%     41.41% # Type of FU issued
system.switch_cpus.iq.FU_type_0::FloatDiv     14633094      0.43%     41.84% # Type of FU issued
system.switch_cpus.iq.FU_type_0::FloatMisc     20485742      0.60%     42.44% # Type of FU issued
system.switch_cpus.iq.FU_type_0::FloatSqrt            0      0.00%     42.44% # Type of FU issued
system.switch_cpus.iq.FU_type_0::SimdAdd            0      0.00%     42.44% # Type of FU issued
system.switch_cpus.iq.FU_type_0::SimdAddAcc            0      0.00%     42.44% # Type of FU issued
system.switch_cpus.iq.FU_type_0::SimdAlu            0      0.00%     42.44% # Type of FU issued
system.switch_cpus.iq.FU_type_0::SimdCmp            0      0.00%     42.44% # Type of FU issued
system.switch_cpus.iq.FU_type_0::SimdCvt            0      0.00%     42.44% # Type of FU issued
system.switch_cpus.iq.FU_type_0::SimdMisc        77246      0.00%     42.44% # Type of FU issued
system.switch_cpus.iq.FU_type_0::SimdMult            0      0.00%     42.44% # Type of FU issued
system.switch_cpus.iq.FU_type_0::SimdMultAcc            0      0.00%     42.44% # Type of FU issued
system.switch_cpus.iq.FU_type_0::SimdShift            0      0.00%     42.44% # Type of FU issued
system.switch_cpus.iq.FU_type_0::SimdShiftAcc            0      0.00%     42.44% # Type of FU issued
system.switch_cpus.iq.FU_type_0::SimdDiv            0      0.00%     42.44% # Type of FU issued
system.switch_cpus.iq.FU_type_0::SimdSqrt            0      0.00%     42.44% # Type of FU issued
system.switch_cpus.iq.FU_type_0::SimdFloatAdd            0      0.00%     42.44% # Type of FU issued
system.switch_cpus.iq.FU_type_0::SimdFloatAlu            0      0.00%     42.44% # Type of FU issued
system.switch_cpus.iq.FU_type_0::SimdFloatCmp            0      0.00%     42.44% # Type of FU issued
system.switch_cpus.iq.FU_type_0::SimdFloatCvt            0      0.00%     42.44% # Type of FU issued
system.switch_cpus.iq.FU_type_0::SimdFloatDiv            0      0.00%     42.44% # Type of FU issued
system.switch_cpus.iq.FU_type_0::SimdFloatMisc            0      0.00%     42.44% # Type of FU issued
system.switch_cpus.iq.FU_type_0::SimdFloatMult            0      0.00%     42.44% # Type of FU issued
system.switch_cpus.iq.FU_type_0::SimdFloatMultAcc            0      0.00%     42.44% # Type of FU issued
system.switch_cpus.iq.FU_type_0::SimdFloatSqrt            0      0.00%     42.44% # Type of FU issued
system.switch_cpus.iq.FU_type_0::SimdReduceAdd            0      0.00%     42.44% # Type of FU issued
system.switch_cpus.iq.FU_type_0::SimdReduceAlu            0      0.00%     42.44% # Type of FU issued
system.switch_cpus.iq.FU_type_0::SimdReduceCmp            0      0.00%     42.44% # Type of FU issued
system.switch_cpus.iq.FU_type_0::SimdFloatReduceAdd            0      0.00%     42.44% # Type of FU issued
system.switch_cpus.iq.FU_type_0::SimdFloatReduceCmp            0      0.00%     42.44% # Type of FU issued
system.switch_cpus.iq.FU_type_0::SimdAes            0      0.00%     42.44% # Type of FU issued
system.switch_cpus.iq.FU_type_0::SimdAesMix            0      0.00%     42.44% # Type of FU issued
system.switch_cpus.iq.FU_type_0::SimdSha1Hash            0      0.00%     42.44% # Type of FU issued
system.switch_cpus.iq.FU_type_0::SimdSha1Hash2            0      0.00%     42.44% # Type of FU issued
system.switch_cpus.iq.FU_type_0::SimdSha256Hash            0      0.00%     42.44% # Type of FU issued
system.switch_cpus.iq.FU_type_0::SimdSha256Hash2            0      0.00%     42.44% # Type of FU issued
system.switch_cpus.iq.FU_type_0::SimdShaSigma2            0      0.00%     42.44% # Type of FU issued
system.switch_cpus.iq.FU_type_0::SimdShaSigma3            0      0.00%     42.44% # Type of FU issued
system.switch_cpus.iq.FU_type_0::SimdPredAlu            0      0.00%     42.44% # Type of FU issued
system.switch_cpus.iq.FU_type_0::MemRead   1679914775     48.99%     91.43% # Type of FU issued
system.switch_cpus.iq.FU_type_0::MemWrite    293812733      8.57%    100.00% # Type of FU issued
system.switch_cpus.iq.FU_type_0::FloatMemRead            0      0.00%    100.00% # Type of FU issued
system.switch_cpus.iq.FU_type_0::FloatMemWrite            0      0.00%    100.00% # Type of FU issued
system.switch_cpus.iq.FU_type_0::IprAccess            0      0.00%    100.00% # Type of FU issued
system.switch_cpus.iq.FU_type_0::InstPrefetch            0      0.00%    100.00% # Type of FU issued
system.switch_cpus.iq.FU_type_0::total     3428982753                       # Type of FU issued
system.switch_cpus.iq.fp_alu_accesses               0                       # Number of floating point alu accesses
system.switch_cpus.iq.fp_inst_queue_reads            0                       # Number of floating instruction queue reads
system.switch_cpus.iq.fp_inst_queue_wakeup_accesses            0                       # Number of floating instruction queue wakeup accesses
system.switch_cpus.iq.fp_inst_queue_writes            0                       # Number of floating instruction queue writes
system.switch_cpus.iq.fu_busy_cnt           662399652                       # FU busy when requested
system.switch_cpus.iq.fu_busy_rate           0.193177                       # FU busy rate (busy events/executed inst)
system.switch_cpus.iq.fu_full::No_OpClass            0      0.00%      0.00% # attempts to use FU when none available
system.switch_cpus.iq.fu_full::IntAlu             186      0.00%      0.00% # attempts to use FU when none available
system.switch_cpus.iq.fu_full::IntMult              0      0.00%      0.00% # attempts to use FU when none available
system.switch_cpus.iq.fu_full::IntDiv               0      0.00%      0.00% # attempts to use FU when none available
system.switch_cpus.iq.fu_full::FloatAdd      33674682      5.08%      5.08% # attempts to use FU when none available
system.switch_cpus.iq.fu_full::FloatCmp             0      0.00%      5.08% # attempts to use FU when none available
system.switch_cpus.iq.fu_full::FloatCvt             0      0.00%      5.08% # attempts to use FU when none available
system.switch_cpus.iq.fu_full::FloatMult    225447122     34.03%     39.12% # attempts to use FU when none available
system.switch_cpus.iq.fu_full::FloatMultAcc            0      0.00%     39.12% # attempts to use FU when none available
system.switch_cpus.iq.fu_full::FloatDiv      58532305      8.84%     47.96% # attempts to use FU when none available
system.switch_cpus.iq.fu_full::FloatMisc     41874980      6.32%     54.28% # attempts to use FU when none available
system.switch_cpus.iq.fu_full::FloatSqrt            0      0.00%     54.28% # attempts to use FU when none available
system.switch_cpus.iq.fu_full::SimdAdd              0      0.00%     54.28% # attempts to use FU when none available
system.switch_cpus.iq.fu_full::SimdAddAcc            0      0.00%     54.28% # attempts to use FU when none available
system.switch_cpus.iq.fu_full::SimdAlu              0      0.00%     54.28% # attempts to use FU when none available
system.switch_cpus.iq.fu_full::SimdCmp              0      0.00%     54.28% # attempts to use FU when none available
system.switch_cpus.iq.fu_full::SimdCvt              0      0.00%     54.28% # attempts to use FU when none available
system.switch_cpus.iq.fu_full::SimdMisc             0      0.00%     54.28% # attempts to use FU when none available
system.switch_cpus.iq.fu_full::SimdMult             0      0.00%     54.28% # attempts to use FU when none available
system.switch_cpus.iq.fu_full::SimdMultAcc            0      0.00%     54.28% # attempts to use FU when none available
system.switch_cpus.iq.fu_full::SimdShift            0      0.00%     54.28% # attempts to use FU when none available
system.switch_cpus.iq.fu_full::SimdShiftAcc            0      0.00%     54.28% # attempts to use FU when none available
system.switch_cpus.iq.fu_full::SimdDiv              0      0.00%     54.28% # attempts to use FU when none available
system.switch_cpus.iq.fu_full::SimdSqrt             0      0.00%     54.28% # attempts to use FU when none available
system.switch_cpus.iq.fu_full::SimdFloatAdd            0      0.00%     54.28% # attempts to use FU when none available
system.switch_cpus.iq.fu_full::SimdFloatAlu            0      0.00%     54.28% # attempts to use FU when none available
system.switch_cpus.iq.fu_full::SimdFloatCmp            0      0.00%     54.28% # attempts to use FU when none available
system.switch_cpus.iq.fu_full::SimdFloatCvt            0      0.00%     54.28% # attempts to use FU when none available
system.switch_cpus.iq.fu_full::SimdFloatDiv            0      0.00%     54.28% # attempts to use FU when none available
system.switch_cpus.iq.fu_full::SimdFloatMisc            0      0.00%     54.28% # attempts to use FU when none available
system.switch_cpus.iq.fu_full::SimdFloatMult            0      0.00%     54.28% # attempts to use FU when none available
system.switch_cpus.iq.fu_full::SimdFloatMultAcc            0      0.00%     54.28% # attempts to use FU when none available
system.switch_cpus.iq.fu_full::SimdFloatSqrt            0      0.00%     54.28% # attempts to use FU when none available
system.switch_cpus.iq.fu_full::SimdReduceAdd            0      0.00%     54.28% # attempts to use FU when none available
system.switch_cpus.iq.fu_full::SimdReduceAlu            0      0.00%     54.28% # attempts to use FU when none available
system.switch_cpus.iq.fu_full::SimdReduceCmp            0      0.00%     54.28% # attempts to use FU when none available
system.switch_cpus.iq.fu_full::SimdFloatReduceAdd            0      0.00%     54.28% # attempts to use FU when none available
system.switch_cpus.iq.fu_full::SimdFloatReduceCmp            0      0.00%     54.28% # attempts to use FU when none available
system.switch_cpus.iq.fu_full::SimdAes              0      0.00%     54.28% # attempts to use FU when none available
system.switch_cpus.iq.fu_full::SimdAesMix            0      0.00%     54.28% # attempts to use FU when none available
system.switch_cpus.iq.fu_full::SimdSha1Hash            0      0.00%     54.28% # attempts to use FU when none available
system.switch_cpus.iq.fu_full::SimdSha1Hash2            0      0.00%     54.28% # attempts to use FU when none available
system.switch_cpus.iq.fu_full::SimdSha256Hash            0      0.00%     54.28% # attempts to use FU when none available
system.switch_cpus.iq.fu_full::SimdSha256Hash2            0      0.00%     54.28% # attempts to use FU when none available
system.switch_cpus.iq.fu_full::SimdShaSigma2            0      0.00%     54.28% # attempts to use FU when none available
system.switch_cpus.iq.fu_full::SimdShaSigma3            0      0.00%     54.28% # attempts to use FU when none available
system.switch_cpus.iq.fu_full::SimdPredAlu            0      0.00%     54.28% # attempts to use FU when none available
system.switch_cpus.iq.fu_full::MemRead      285893028     43.16%     97.44% # attempts to use FU when none available
system.switch_cpus.iq.fu_full::MemWrite      16977349      2.56%    100.00% # attempts to use FU when none available
system.switch_cpus.iq.fu_full::FloatMemRead            0      0.00%    100.00% # attempts to use FU when none available
system.switch_cpus.iq.fu_full::FloatMemWrite            0      0.00%    100.00% # attempts to use FU when none available
system.switch_cpus.iq.fu_full::IprAccess            0      0.00%    100.00% # attempts to use FU when none available
system.switch_cpus.iq.fu_full::InstPrefetch            0      0.00%    100.00% # attempts to use FU when none available
system.switch_cpus.iq.int_alu_accesses      262468250                       # Number of integer alu accesses
system.switch_cpus.iq.int_inst_queue_reads   3307693178                       # Number of integer instruction queue reads
system.switch_cpus.iq.int_inst_queue_wakeup_accesses    216066767                       # Number of integer instruction queue wakeup accesses
system.switch_cpus.iq.int_inst_queue_writes    228717674                       # Number of integer instruction queue writes
system.switch_cpus.iq.iqInstsAdded         2177709515                       # Number of instructions added to the IQ (excludes non-spec)
system.switch_cpus.iq.iqInstsIssued        3428982753                       # Number of instructions issued
system.switch_cpus.iq.iqSquashedInstsExamined     63909360                       # Number of squashed instructions iterated over during squash; mainly for profiling
system.switch_cpus.iq.iqSquashedInstsIssued      4260806                       # Number of squashed instructions issued
system.switch_cpus.iq.iqSquashedOperandsExamined    189732914                       # Number of squashed operands that are examined and possibly removed from graph
system.switch_cpus.iq.issued_per_cycle::samples   2792925444                       # Number of insts issued each cycle
system.switch_cpus.iq.issued_per_cycle::mean     1.227739                       # Number of insts issued each cycle
system.switch_cpus.iq.issued_per_cycle::stdev     2.013105                       # Number of insts issued each cycle
system.switch_cpus.iq.issued_per_cycle::underflows            0      0.00%      0.00% # Number of insts issued each cycle
system.switch_cpus.iq.issued_per_cycle::0   1859268188     66.57%     66.57% # Number of insts issued each cycle
system.switch_cpus.iq.issued_per_cycle::1    139699346      5.00%     71.57% # Number of insts issued each cycle
system.switch_cpus.iq.issued_per_cycle::2    120473697      4.31%     75.89% # Number of insts issued each cycle
system.switch_cpus.iq.issued_per_cycle::3    106430051      3.81%     79.70% # Number of insts issued each cycle
system.switch_cpus.iq.issued_per_cycle::4    347575620     12.44%     92.14% # Number of insts issued each cycle
system.switch_cpus.iq.issued_per_cycle::5     72547929      2.60%     94.74% # Number of insts issued each cycle
system.switch_cpus.iq.issued_per_cycle::6     81082690      2.90%     97.64% # Number of insts issued each cycle
system.switch_cpus.iq.issued_per_cycle::7     37275789      1.33%     98.98% # Number of insts issued each cycle
system.switch_cpus.iq.issued_per_cycle::8     28572134      1.02%    100.00% # Number of insts issued each cycle
system.switch_cpus.iq.issued_per_cycle::overflows            0      0.00%    100.00% # Number of insts issued each cycle
system.switch_cpus.iq.issued_per_cycle::min_value            0                       # Number of insts issued each cycle
system.switch_cpus.iq.issued_per_cycle::max_value            8                       # Number of insts issued each cycle
system.switch_cpus.iq.issued_per_cycle::total   2792925444                       # Number of insts issued each cycle
system.switch_cpus.iq.rate                   1.227737                       # Inst issue rate
system.switch_cpus.iq.vec_alu_accesses     3828914143                       # Number of vector alu accesses
system.switch_cpus.iq.vec_inst_queue_reads   7009858230                       # Number of vector instruction queue reads
system.switch_cpus.iq.vec_inst_queue_wakeup_accesses   1917092785                       # Number of vector instruction queue wakeup accesses
system.switch_cpus.iq.vec_inst_queue_writes   2012911110                       # Number of vector instruction queue writes
system.switch_cpus.memDep0.conflictingLoads     24633675                       # Number of conflicting loads.
system.switch_cpus.memDep0.conflictingStores     10189561                       # Number of conflicting stores.
system.switch_cpus.memDep0.insertedLoads    395112779                       # Number of loads inserted to the mem dependence unit.
system.switch_cpus.memDep0.insertedStores    304716783                       # Number of stores inserted to the mem dependence unit.
system.switch_cpus.misc_regfile_reads     14264465464                       # number of misc regfile reads
system.switch_cpus.misc_regfile_writes     1227680619                       # number of misc regfile writes
system.switch_cpus.numCycles               2792929441                       # number of cpu cycles simulated
system.switch_cpus.numWorkItemsCompleted            0                       # number of work items this cpu completed
system.switch_cpus.numWorkItemsStarted              0                       # number of work items this cpu started
system.switch_cpus.timesIdled                      77                       # Number of times that the entire CPU went into an idle state and unscheduled itself
system.switch_cpus.vec_regfile_reads       2757868468                       # number of vector regfile reads
system.switch_cpus.vec_regfile_writes      1669392652                       # number of vector regfile writes
system.tol2bus.snoop_filter.hit_multi_requests            0                       # Number of requests hitting in the snoop filter with multiple (>1) holders of the requested data.
system.tol2bus.snoop_filter.hit_multi_snoops            0                       # Number of snoops hitting in the snoop filter with multiple (>1) holders of the requested data.
system.tol2bus.snoop_filter.hit_single_requests    179689225                       # Number of requests hitting in the snoop filter with a single holder of the requested data.
system.tol2bus.snoop_filter.hit_single_snoops         1454                       # Number of snoops hitting in the snoop filter with a single holder of the requested data.
system.tol2bus.snoop_filter.tot_requests    359354164                       # Total number of requests made to the snoop filter.
system.tol2bus.snoop_filter.tot_snoops           1454                       # Total number of snoops made to the snoop filter.
system.clk_domain.clock                          1000                       # Clock period in ticks
system.cpu.dcache.demand_hits::.cpu.data            1                       # number of demand (read+write) hits
system.cpu.dcache.demand_hits::.switch_cpus.data    416676053                       # number of demand (read+write) hits
system.cpu.dcache.demand_hits::total        416676054                       # number of demand (read+write) hits
system.cpu.dcache.overall_hits::.cpu.data            1                       # number of overall hits
system.cpu.dcache.overall_hits::.switch_cpus.data    416676053                       # number of overall hits
system.cpu.dcache.overall_hits::total       416676054                       # number of overall hits
system.cpu.dcache.demand_misses::.cpu.data            2                       # number of demand (read+write) misses
system.cpu.dcache.demand_misses::.switch_cpus.data    245459755                       # number of demand (read+write) misses
system.cpu.dcache.demand_misses::total      245459757                       # number of demand (read+write) misses
system.cpu.dcache.overall_misses::.cpu.data            2                       # number of overall misses
system.cpu.dcache.overall_misses::.switch_cpus.data    245459755                       # number of overall misses
system.cpu.dcache.overall_misses::total     245459757                       # number of overall misses
system.cpu.dcache.demand_miss_latency::.switch_cpus.data 8303193427859                       # number of demand (read+write) miss cycles
system.cpu.dcache.demand_miss_latency::total 8303193427859                       # number of demand (read+write) miss cycles
system.cpu.dcache.overall_miss_latency::.switch_cpus.data 8303193427859                       # number of overall miss cycles
system.cpu.dcache.overall_miss_latency::total 8303193427859                       # number of overall miss cycles
system.cpu.dcache.demand_accesses::.cpu.data            3                       # number of demand (read+write) accesses
system.cpu.dcache.demand_accesses::.switch_cpus.data    662135808                       # number of demand (read+write) accesses
system.cpu.dcache.demand_accesses::total    662135811                       # number of demand (read+write) accesses
system.cpu.dcache.overall_accesses::.cpu.data            3                       # number of overall (read+write) accesses
system.cpu.dcache.overall_accesses::.switch_cpus.data    662135808                       # number of overall (read+write) accesses
system.cpu.dcache.overall_accesses::total    662135811                       # number of overall (read+write) accesses
system.cpu.dcache.demand_miss_rate::.cpu.data     0.666667                       # miss rate for demand accesses
system.cpu.dcache.demand_miss_rate::.switch_cpus.data     0.370709                       # miss rate for demand accesses
system.cpu.dcache.demand_miss_rate::total     0.370709                       # miss rate for demand accesses
system.cpu.dcache.overall_miss_rate::.cpu.data     0.666667                       # miss rate for overall accesses
system.cpu.dcache.overall_miss_rate::.switch_cpus.data     0.370709                       # miss rate for overall accesses
system.cpu.dcache.overall_miss_rate::total     0.370709                       # miss rate for overall accesses
system.cpu.dcache.demand_avg_miss_latency::.switch_cpus.data 33827.107127                       # average overall miss latency
system.cpu.dcache.demand_avg_miss_latency::total 33827.106852                       # average overall miss latency
system.cpu.dcache.overall_avg_miss_latency::.switch_cpus.data 33827.107127                       # average overall miss latency
system.cpu.dcache.overall_avg_miss_latency::total 33827.106852                       # average overall miss latency
system.cpu.dcache.blocked_cycles::no_mshrs   1402354700                       # number of cycles access was blocked
system.cpu.dcache.blocked_cycles::no_targets          659                       # number of cycles access was blocked
system.cpu.dcache.blocked::no_mshrs         155904135                       # number of cycles access was blocked
system.cpu.dcache.blocked::no_targets               3                       # number of cycles access was blocked
system.cpu.dcache.avg_blocked_cycles::no_mshrs     8.994981                       # average number of cycles each access was blocked
system.cpu.dcache.avg_blocked_cycles::no_targets   219.666667                       # average number of cycles each access was blocked
system.cpu.dcache.ghost_timestamp_misses            0                       # number of times timestamp policy causes a block to be inaccessible
system.cpu.dcache.ghost_commits                     0                       # number of cache lines moved from ghost to main
system.cpu.dcache.same_leapfrogs                    0                       # number of times leapfrogging occurs with a shared MSHR request
system.cpu.dcache.writebacks::.writebacks    179659425                       # number of writebacks
system.cpu.dcache.writebacks::total         179659425                       # number of writebacks
system.cpu.dcache.demand_mshr_hits::.switch_cpus.data     65799816                       # number of demand (read+write) MSHR hits
system.cpu.dcache.demand_mshr_hits::total     65799816                       # number of demand (read+write) MSHR hits
system.cpu.dcache.overall_mshr_hits::.switch_cpus.data     65799816                       # number of overall MSHR hits
system.cpu.dcache.overall_mshr_hits::total     65799816                       # number of overall MSHR hits
system.cpu.dcache.demand_mshr_misses::.switch_cpus.data    179659939                       # number of demand (read+write) MSHR misses
system.cpu.dcache.demand_mshr_misses::total    179659939                       # number of demand (read+write) MSHR misses
system.cpu.dcache.overall_mshr_misses::.switch_cpus.data    179659939                       # number of overall MSHR misses
system.cpu.dcache.overall_mshr_misses::total    179659939                       # number of overall MSHR misses
system.cpu.dcache.demand_mshr_miss_latency::.switch_cpus.data 3915862165221                       # number of demand (read+write) MSHR miss cycles
system.cpu.dcache.demand_mshr_miss_latency::total 3915862165221                       # number of demand (read+write) MSHR miss cycles
system.cpu.dcache.overall_mshr_miss_latency::.switch_cpus.data 3915862165221                       # number of overall MSHR miss cycles
system.cpu.dcache.overall_mshr_miss_latency::total 3915862165221                       # number of overall MSHR miss cycles
system.cpu.dcache.demand_mshr_miss_rate::.switch_cpus.data     0.271334                       # mshr miss rate for demand accesses
system.cpu.dcache.demand_mshr_miss_rate::total     0.271334                       # mshr miss rate for demand accesses
system.cpu.dcache.overall_mshr_miss_rate::.switch_cpus.data     0.271334                       # mshr miss rate for overall accesses
system.cpu.dcache.overall_mshr_miss_rate::total     0.271334                       # mshr miss rate for overall accesses
system.cpu.dcache.demand_avg_mshr_miss_latency::.switch_cpus.data 21795.967354                       # average overall mshr miss latency
system.cpu.dcache.demand_avg_mshr_miss_latency::total 21795.967354                       # average overall mshr miss latency
system.cpu.dcache.overall_avg_mshr_miss_latency::.switch_cpus.data 21795.967354                       # average overall mshr miss latency
system.cpu.dcache.overall_avg_mshr_miss_latency::total 21795.967354                       # average overall mshr miss latency
system.cpu.dcache.replacements              179659425                       # number of replacements
system.cpu.dcache.ReadReq_hits::.cpu.data            1                       # number of ReadReq hits
system.cpu.dcache.ReadReq_hits::.switch_cpus.data    278157371                       # number of ReadReq hits
system.cpu.dcache.ReadReq_hits::total       278157372                       # number of ReadReq hits
system.cpu.dcache.ReadReq_misses::.cpu.data            1                       # number of ReadReq misses
system.cpu.dcache.ReadReq_misses::.switch_cpus.data     92921181                       # number of ReadReq misses
system.cpu.dcache.ReadReq_misses::total      92921182                       # number of ReadReq misses
system.cpu.dcache.ReadReq_miss_latency::.switch_cpus.data 5465994824000                       # number of ReadReq miss cycles
system.cpu.dcache.ReadReq_miss_latency::total 5465994824000                       # number of ReadReq miss cycles
system.cpu.dcache.ReadReq_accesses::.cpu.data            2                       # number of ReadReq accesses(hits+misses)
system.cpu.dcache.ReadReq_accesses::.switch_cpus.data    371078552                       # number of ReadReq accesses(hits+misses)
system.cpu.dcache.ReadReq_accesses::total    371078554                       # number of ReadReq accesses(hits+misses)
system.cpu.dcache.ReadReq_miss_rate::.cpu.data     0.500000                       # miss rate for ReadReq accesses
system.cpu.dcache.ReadReq_miss_rate::.switch_cpus.data     0.250408                       # miss rate for ReadReq accesses
system.cpu.dcache.ReadReq_miss_rate::total     0.250408                       # miss rate for ReadReq accesses
system.cpu.dcache.ReadReq_avg_miss_latency::.switch_cpus.data 58823.992175                       # average ReadReq miss latency
system.cpu.dcache.ReadReq_avg_miss_latency::total 58823.991542                       # average ReadReq miss latency
system.cpu.dcache.ReadReq_mshr_hits::.switch_cpus.data     65695403                       # number of ReadReq MSHR hits
system.cpu.dcache.ReadReq_mshr_hits::total     65695403                       # number of ReadReq MSHR hits
system.cpu.dcache.ReadReq_mshr_misses::.switch_cpus.data     27225778                       # number of ReadReq MSHR misses
system.cpu.dcache.ReadReq_mshr_misses::total     27225778                       # number of ReadReq MSHR misses
system.cpu.dcache.ReadReq_mshr_miss_latency::.switch_cpus.data 1232405952000                       # number of ReadReq MSHR miss cycles
system.cpu.dcache.ReadReq_mshr_miss_latency::total 1232405952000                       # number of ReadReq MSHR miss cycles
system.cpu.dcache.ReadReq_mshr_miss_rate::.switch_cpus.data     0.073369                       # mshr miss rate for ReadReq accesses
system.cpu.dcache.ReadReq_mshr_miss_rate::total     0.073369                       # mshr miss rate for ReadReq accesses
system.cpu.dcache.ReadReq_avg_mshr_miss_latency::.switch_cpus.data 45266.142698                       # average ReadReq mshr miss latency
system.cpu.dcache.ReadReq_avg_mshr_miss_latency::total 45266.142698                       # average ReadReq mshr miss latency
system.cpu.dcache.WriteReq_hits::.switch_cpus.data    138518682                       # number of WriteReq hits
system.cpu.dcache.WriteReq_hits::total      138518682                       # number of WriteReq hits
system.cpu.dcache.WriteReq_misses::.cpu.data            1                       # number of WriteReq misses
system.cpu.dcache.WriteReq_misses::.switch_cpus.data    152538574                       # number of WriteReq misses
system.cpu.dcache.WriteReq_misses::total    152538575                       # number of WriteReq misses
system.cpu.dcache.WriteReq_miss_latency::.switch_cpus.data 2837198603859                       # number of WriteReq miss cycles
system.cpu.dcache.WriteReq_miss_latency::total 2837198603859                       # number of WriteReq miss cycles
system.cpu.dcache.WriteReq_accesses::.cpu.data            1                       # number of WriteReq accesses(hits+misses)
system.cpu.dcache.WriteReq_accesses::.switch_cpus.data    291057256                       # number of WriteReq accesses(hits+misses)
system.cpu.dcache.WriteReq_accesses::total    291057257                       # number of WriteReq accesses(hits+misses)
system.cpu.dcache.WriteReq_miss_rate::.cpu.data            1                       # miss rate for WriteReq accesses
system.cpu.dcache.WriteReq_miss_rate::.switch_cpus.data     0.524084                       # miss rate for WriteReq accesses
system.cpu.dcache.WriteReq_miss_rate::total     0.524084                       # miss rate for WriteReq accesses
system.cpu.dcache.WriteReq_avg_miss_latency::.switch_cpus.data 18599.876277                       # average WriteReq miss latency
system.cpu.dcache.WriteReq_avg_miss_latency::total 18599.876155                       # average WriteReq miss latency
system.cpu.dcache.WriteReq_mshr_hits::.switch_cpus.data       104413                       # number of WriteReq MSHR hits
system.cpu.dcache.WriteReq_mshr_hits::total       104413                       # number of WriteReq MSHR hits
system.cpu.dcache.WriteReq_mshr_misses::.switch_cpus.data    152434161                       # number of WriteReq MSHR misses
system.cpu.dcache.WriteReq_mshr_misses::total    152434161                       # number of WriteReq MSHR misses
system.cpu.dcache.WriteReq_mshr_miss_latency::.switch_cpus.data 2683456213221                       # number of WriteReq MSHR miss cycles
system.cpu.dcache.WriteReq_mshr_miss_latency::total 2683456213221                       # number of WriteReq MSHR miss cycles
system.cpu.dcache.WriteReq_mshr_miss_rate::.switch_cpus.data     0.523726                       # mshr miss rate for WriteReq accesses
system.cpu.dcache.WriteReq_mshr_miss_rate::total     0.523726                       # mshr miss rate for WriteReq accesses
system.cpu.dcache.WriteReq_avg_mshr_miss_latency::.switch_cpus.data 17604.034395                       # average WriteReq mshr miss latency
system.cpu.dcache.WriteReq_avg_mshr_miss_latency::total 17604.034395                       # average WriteReq mshr miss latency
system.cpu.dcache.ghosttags.tagsinuse               0                       # Cycle average of tags in use
system.cpu.dcache.ghosttags.total_refs              0                       # Total number of references to valid blocks.
system.cpu.dcache.ghosttags.sampled_refs            0                       # Sample count of references to valid blocks.
system.cpu.dcache.ghosttags.avg_refs              nan                       # Average number of references to valid blocks.
system.cpu.dcache.ghosttags.warmup_cycle            0                       # Cycle when the warmup percentage was hit.
system.cpu.dcache.ghosttags.tag_accesses            0                       # Number of tag accesses
system.cpu.dcache.ghosttags.data_accesses            0                       # Number of data accesses
system.cpu.dcache.ghosttags.repl_invalid            0                       # Number of initial replacements
system.cpu.dcache.ghosttags.repl_valid_tag            0                       # Number of local replacements
system.cpu.dcache.ghosttags.repl_valid_data            0                       # Number of global replacements
system.cpu.dcache.ghosttags.power_state.pwrStateResidencyTicks::UNDEFINED 6948686824000                       # Cumulative time (in ticks) in various power states
system.cpu.dcache.power_state.pwrStateResidencyTicks::UNDEFINED 6948686824000                       # Cumulative time (in ticks) in various power states
system.cpu.dcache.tags.tagsinuse           511.998359                       # Cycle average of tags in use
system.cpu.dcache.tags.total_refs           596335991                       # Total number of references to valid blocks.
system.cpu.dcache.tags.sampled_refs         179659937                       # Sample count of references to valid blocks.
system.cpu.dcache.tags.avg_refs              3.319249                       # Average number of references to valid blocks.
system.cpu.dcache.tags.warmup_cycle      5552222094500                       # Cycle when the warmup percentage was hit.
system.cpu.dcache.tags.occ_blocks::.cpu.data     0.000141                       # Average occupied blocks per requestor
system.cpu.dcache.tags.occ_blocks::.switch_cpus.data   511.998218                       # Average occupied blocks per requestor
system.cpu.dcache.tags.occ_percent::.cpu.data     0.000000                       # Average percentage of cache occupancy
system.cpu.dcache.tags.occ_percent::.switch_cpus.data     0.999997                       # Average percentage of cache occupancy
system.cpu.dcache.tags.occ_percent::total     0.999997                       # Average percentage of cache occupancy
system.cpu.dcache.tags.occ_task_id_blocks::1024          512                       # Occupied blocks per task id
system.cpu.dcache.tags.age_task_id_blocks_1024::0          508                       # Occupied blocks per task id
system.cpu.dcache.tags.age_task_id_blocks_1024::2            4                       # Occupied blocks per task id
system.cpu.dcache.tags.occ_task_id_percent::1024            1                       # Percentage of cache occupancy per task id
system.cpu.dcache.tags.tag_accesses        5476746425                       # Number of tag accesses
system.cpu.dcache.tags.data_accesses       5476746425                       # Number of data accesses
system.cpu.dcache.tags.repl_invalid                 0                       # Number of initial replacements
system.cpu.dcache.tags.repl_valid_tag               0                       # Number of local replacements
system.cpu.dcache.tags.repl_valid_data              0                       # Number of global replacements
system.cpu.dcache.tags.power_state.pwrStateResidencyTicks::UNDEFINED 6948686824000                       # Cumulative time (in ticks) in various power states
system.cpu.dtb.instHits                             0                       # ITB inst hits
system.cpu.dtb.instMisses                           0                       # ITB inst misses
system.cpu.dtb.readHits                             0                       # DTB read hits
system.cpu.dtb.readMisses                           0                       # DTB read misses
system.cpu.dtb.writeHits                            0                       # DTB write hits
system.cpu.dtb.writeMisses                          0                       # DTB write misses
system.cpu.dtb.inserts                              0                       # Number of times an entry is inserted into the TLB
system.cpu.dtb.flushTlb                             2                       # Number of times complete TLB was flushed
system.cpu.dtb.flushTlbMva                          0                       # Number of times TLB was flushed by MVA
system.cpu.dtb.flushTlbMvaAsid                      0                       # Number of times TLB was flushed by MVA & ASID
system.cpu.dtb.flushTlbAsid                         0                       # Number of times TLB was flushed by ASID
system.cpu.dtb.flushedEntries                       0                       # Number of entries that have been flushed from TLB
system.cpu.dtb.alignFaults                          0                       # Number of TLB faults due to alignment restrictions
system.cpu.dtb.prefetchFaults                       0                       # Number of TLB faults due to prefetch
system.cpu.dtb.domainFaults                         0                       # Number of TLB faults due to domain restrictions
system.cpu.dtb.permsFaults                          0                       # Number of TLB faults due to permissions restrictions
system.cpu.dtb.readAccesses                         0                       # DTB read accesses
system.cpu.dtb.writeAccesses                        0                       # DTB write accesses
system.cpu.dtb.instAccesses                         0                       # ITB inst accesses
system.cpu.dtb.hits                                 0                       # Total TLB (inst and data) hits
system.cpu.dtb.misses                               0                       # Total TLB (inst and data) misses
system.cpu.dtb.accesses                             0                       # Total TLB (inst and data) accesses
system.cpu.dtb.stage2_mmu.stage2_tlb.instHits            0                       # ITB inst hits
system.cpu.dtb.stage2_mmu.stage2_tlb.instMisses            0                       # ITB inst misses
system.cpu.dtb.stage2_mmu.stage2_tlb.readHits            0                       # DTB read hits
system.cpu.dtb.stage2_mmu.stage2_tlb.readMisses            0                       # DTB read misses
system.cpu.dtb.stage2_mmu.stage2_tlb.writeHits            0                       # DTB write hits
system.cpu.dtb.stage2_mmu.stage2_tlb.writeMisses            0                       # DTB write misses
system.cpu.dtb.stage2_mmu.stage2_tlb.inserts            0                       # Number of times an entry is inserted into the TLB
system.cpu.dtb.stage2_mmu.stage2_tlb.flushTlb            0                       # Number of times complete TLB was flushed
system.cpu.dtb.stage2_mmu.stage2_tlb.flushTlbMva            0                       # Number of times TLB was flushed by MVA
system.cpu.dtb.stage2_mmu.stage2_tlb.flushTlbMvaAsid            0                       # Number of times TLB was flushed by MVA & ASID
system.cpu.dtb.stage2_mmu.stage2_tlb.flushTlbAsid            0                       # Number of times TLB was flushed by ASID
system.cpu.dtb.stage2_mmu.stage2_tlb.flushedEntries            0                       # Number of entries that have been flushed from TLB
system.cpu.dtb.stage2_mmu.stage2_tlb.alignFaults            0                       # Number of TLB faults due to alignment restrictions
system.cpu.dtb.stage2_mmu.stage2_tlb.prefetchFaults            0                       # Number of TLB faults due to prefetch
system.cpu.dtb.stage2_mmu.stage2_tlb.domainFaults            0                       # Number of TLB faults due to domain restrictions
system.cpu.dtb.stage2_mmu.stage2_tlb.permsFaults            0                       # Number of TLB faults due to permissions restrictions
system.cpu.dtb.stage2_mmu.stage2_tlb.readAccesses            0                       # DTB read accesses
system.cpu.dtb.stage2_mmu.stage2_tlb.writeAccesses            0                       # DTB write accesses
system.cpu.dtb.stage2_mmu.stage2_tlb.instAccesses            0                       # ITB inst accesses
system.cpu.dtb.stage2_mmu.stage2_tlb.hits            0                       # Total TLB (inst and data) hits
system.cpu.dtb.stage2_mmu.stage2_tlb.misses            0                       # Total TLB (inst and data) misses
system.cpu.dtb.stage2_mmu.stage2_tlb.accesses            0                       # Total TLB (inst and data) accesses
system.cpu.dtb.stage2_mmu.stage2_tlb.walker.walks            0                       # Table walker walks requested
system.cpu.dtb.stage2_mmu.stage2_tlb.walker.requestOrigin_Requested::Data            0                       # Table walker requests started/completed, data/inst
system.cpu.dtb.stage2_mmu.stage2_tlb.walker.requestOrigin_Requested::Inst            0                       # Table walker requests started/completed, data/inst
system.cpu.dtb.stage2_mmu.stage2_tlb.walker.requestOrigin_Requested::total            0                       # Table walker requests started/completed, data/inst
system.cpu.dtb.stage2_mmu.stage2_tlb.walker.requestOrigin_Completed::Data            0                       # Table walker requests started/completed, data/inst
system.cpu.dtb.stage2_mmu.stage2_tlb.walker.requestOrigin_Completed::Inst            0                       # Table walker requests started/completed, data/inst
system.cpu.dtb.stage2_mmu.stage2_tlb.walker.requestOrigin_Completed::total            0                       # Table walker requests started/completed, data/inst
system.cpu.dtb.stage2_mmu.stage2_tlb.walker.requestOrigin::total            0                       # Table walker requests started/completed, data/inst
system.cpu.dtb.stage2_mmu.stage2_tlb.walker.power_state.pwrStateResidencyTicks::UNDEFINED 6948686824000                       # Cumulative time (in ticks) in various power states
system.cpu.dtb.walker.walks                         0                       # Table walker walks requested
system.cpu.dtb.walker.requestOrigin_Requested::Data            0                       # Table walker requests started/completed, data/inst
system.cpu.dtb.walker.requestOrigin_Requested::Inst            0                       # Table walker requests started/completed, data/inst
system.cpu.dtb.walker.requestOrigin_Requested::total            0                       # Table walker requests started/completed, data/inst
system.cpu.dtb.walker.requestOrigin_Completed::Data            0                       # Table walker requests started/completed, data/inst
system.cpu.dtb.walker.requestOrigin_Completed::Inst            0                       # Table walker requests started/completed, data/inst
system.cpu.dtb.walker.requestOrigin_Completed::total            0                       # Table walker requests started/completed, data/inst
system.cpu.dtb.walker.requestOrigin::total            0                       # Table walker requests started/completed, data/inst
system.cpu.dtb.walker.power_state.pwrStateResidencyTicks::UNDEFINED 6948686824000                       # Cumulative time (in ticks) in various power states
system.cpu.icache.demand_hits::.cpu.inst           18                       # number of demand (read+write) hits
system.cpu.icache.demand_hits::.switch_cpus.inst    154162545                       # number of demand (read+write) hits
system.cpu.icache.demand_hits::total        154162563                       # number of demand (read+write) hits
system.cpu.icache.overall_hits::.cpu.inst           18                       # number of overall hits
system.cpu.icache.overall_hits::.switch_cpus.inst    154162545                       # number of overall hits
system.cpu.icache.overall_hits::total       154162563                       # number of overall hits
system.cpu.icache.demand_misses::.cpu.inst            2                       # number of demand (read+write) misses
system.cpu.icache.demand_misses::.switch_cpus.inst           34                       # number of demand (read+write) misses
system.cpu.icache.demand_misses::total             36                       # number of demand (read+write) misses
system.cpu.icache.overall_misses::.cpu.inst            2                       # number of overall misses
system.cpu.icache.overall_misses::.switch_cpus.inst           34                       # number of overall misses
system.cpu.icache.overall_misses::total            36                       # number of overall misses
system.cpu.icache.demand_miss_latency::.switch_cpus.inst      2839500                       # number of demand (read+write) miss cycles
system.cpu.icache.demand_miss_latency::total      2839500                       # number of demand (read+write) miss cycles
system.cpu.icache.overall_miss_latency::.switch_cpus.inst      2839500                       # number of overall miss cycles
system.cpu.icache.overall_miss_latency::total      2839500                       # number of overall miss cycles
system.cpu.icache.demand_accesses::.cpu.inst           20                       # number of demand (read+write) accesses
system.cpu.icache.demand_accesses::.switch_cpus.inst    154162579                       # number of demand (read+write) accesses
system.cpu.icache.demand_accesses::total    154162599                       # number of demand (read+write) accesses
system.cpu.icache.overall_accesses::.cpu.inst           20                       # number of overall (read+write) accesses
system.cpu.icache.overall_accesses::.switch_cpus.inst    154162579                       # number of overall (read+write) accesses
system.cpu.icache.overall_accesses::total    154162599                       # number of overall (read+write) accesses
system.cpu.icache.demand_miss_rate::.cpu.inst     0.100000                       # miss rate for demand accesses
system.cpu.icache.demand_miss_rate::.switch_cpus.inst     0.000000                       # miss rate for demand accesses
system.cpu.icache.demand_miss_rate::total     0.000000                       # miss rate for demand accesses
system.cpu.icache.overall_miss_rate::.cpu.inst     0.100000                       # miss rate for overall accesses
system.cpu.icache.overall_miss_rate::.switch_cpus.inst     0.000000                       # miss rate for overall accesses
system.cpu.icache.overall_miss_rate::total     0.000000                       # miss rate for overall accesses
system.cpu.icache.demand_avg_miss_latency::.switch_cpus.inst 83514.705882                       # average overall miss latency
system.cpu.icache.demand_avg_miss_latency::total        78875                       # average overall miss latency
system.cpu.icache.overall_avg_miss_latency::.switch_cpus.inst 83514.705882                       # average overall miss latency
system.cpu.icache.overall_avg_miss_latency::total        78875                       # average overall miss latency
system.cpu.icache.blocked_cycles::no_mshrs            0                       # number of cycles access was blocked
system.cpu.icache.blocked_cycles::no_targets            0                       # number of cycles access was blocked
system.cpu.icache.blocked::no_mshrs                 0                       # number of cycles access was blocked
system.cpu.icache.blocked::no_targets               0                       # number of cycles access was blocked
system.cpu.icache.avg_blocked_cycles::no_mshrs          nan                       # average number of cycles each access was blocked
system.cpu.icache.avg_blocked_cycles::no_targets          nan                       # average number of cycles each access was blocked
system.cpu.icache.ghost_timestamp_misses            0                       # number of times timestamp policy causes a block to be inaccessible
system.cpu.icache.ghost_commits                     0                       # number of cache lines moved from ghost to main
system.cpu.icache.same_leapfrogs                    0                       # number of times leapfrogging occurs with a shared MSHR request
system.cpu.icache.demand_mshr_hits::.switch_cpus.inst            1                       # number of demand (read+write) MSHR hits
system.cpu.icache.demand_mshr_hits::total            1                       # number of demand (read+write) MSHR hits
system.cpu.icache.overall_mshr_hits::.switch_cpus.inst            1                       # number of overall MSHR hits
system.cpu.icache.overall_mshr_hits::total            1                       # number of overall MSHR hits
system.cpu.icache.demand_mshr_misses::.switch_cpus.inst           33                       # number of demand (read+write) MSHR misses
system.cpu.icache.demand_mshr_misses::total           33                       # number of demand (read+write) MSHR misses
system.cpu.icache.overall_mshr_misses::.switch_cpus.inst           33                       # number of overall MSHR misses
system.cpu.icache.overall_mshr_misses::total           33                       # number of overall MSHR misses
system.cpu.icache.demand_mshr_miss_latency::.switch_cpus.inst      2799500                       # number of demand (read+write) MSHR miss cycles
system.cpu.icache.demand_mshr_miss_latency::total      2799500                       # number of demand (read+write) MSHR miss cycles
system.cpu.icache.overall_mshr_miss_latency::.switch_cpus.inst      2799500                       # number of overall MSHR miss cycles
system.cpu.icache.overall_mshr_miss_latency::total      2799500                       # number of overall MSHR miss cycles
system.cpu.icache.demand_mshr_miss_rate::.switch_cpus.inst     0.000000                       # mshr miss rate for demand accesses
system.cpu.icache.demand_mshr_miss_rate::total     0.000000                       # mshr miss rate for demand accesses
system.cpu.icache.overall_mshr_miss_rate::.switch_cpus.inst     0.000000                       # mshr miss rate for overall accesses
system.cpu.icache.overall_mshr_miss_rate::total     0.000000                       # mshr miss rate for overall accesses
system.cpu.icache.demand_avg_mshr_miss_latency::.switch_cpus.inst 84833.333333                       # average overall mshr miss latency
system.cpu.icache.demand_avg_mshr_miss_latency::total 84833.333333                       # average overall mshr miss latency
system.cpu.icache.overall_avg_mshr_miss_latency::.switch_cpus.inst 84833.333333                       # average overall mshr miss latency
system.cpu.icache.overall_avg_mshr_miss_latency::total 84833.333333                       # average overall mshr miss latency
system.cpu.icache.replacements                      0                       # number of replacements
system.cpu.icache.ReadReq_hits::.cpu.inst           18                       # number of ReadReq hits
system.cpu.icache.ReadReq_hits::.switch_cpus.inst    154162545                       # number of ReadReq hits
system.cpu.icache.ReadReq_hits::total       154162563                       # number of ReadReq hits
system.cpu.icache.ReadReq_misses::.cpu.inst            2                       # number of ReadReq misses
system.cpu.icache.ReadReq_misses::.switch_cpus.inst           34                       # number of ReadReq misses
system.cpu.icache.ReadReq_misses::total            36                       # number of ReadReq misses
system.cpu.icache.ReadReq_miss_latency::.switch_cpus.inst      2839500                       # number of ReadReq miss cycles
system.cpu.icache.ReadReq_miss_latency::total      2839500                       # number of ReadReq miss cycles
system.cpu.icache.ReadReq_accesses::.cpu.inst           20                       # number of ReadReq accesses(hits+misses)
system.cpu.icache.ReadReq_accesses::.switch_cpus.inst    154162579                       # number of ReadReq accesses(hits+misses)
system.cpu.icache.ReadReq_accesses::total    154162599                       # number of ReadReq accesses(hits+misses)
system.cpu.icache.ReadReq_miss_rate::.cpu.inst     0.100000                       # miss rate for ReadReq accesses
system.cpu.icache.ReadReq_miss_rate::.switch_cpus.inst     0.000000                       # miss rate for ReadReq accesses
system.cpu.icache.ReadReq_miss_rate::total     0.000000                       # miss rate for ReadReq accesses
system.cpu.icache.ReadReq_avg_miss_latency::.switch_cpus.inst 83514.705882                       # average ReadReq miss latency
system.cpu.icache.ReadReq_avg_miss_latency::total        78875                       # average ReadReq miss latency
system.cpu.icache.ReadReq_mshr_hits::.switch_cpus.inst            1                       # number of ReadReq MSHR hits
system.cpu.icache.ReadReq_mshr_hits::total            1                       # number of ReadReq MSHR hits
system.cpu.icache.ReadReq_mshr_misses::.switch_cpus.inst           33                       # number of ReadReq MSHR misses
system.cpu.icache.ReadReq_mshr_misses::total           33                       # number of ReadReq MSHR misses
system.cpu.icache.ReadReq_mshr_miss_latency::.switch_cpus.inst      2799500                       # number of ReadReq MSHR miss cycles
system.cpu.icache.ReadReq_mshr_miss_latency::total      2799500                       # number of ReadReq MSHR miss cycles
system.cpu.icache.ReadReq_mshr_miss_rate::.switch_cpus.inst     0.000000                       # mshr miss rate for ReadReq accesses
system.cpu.icache.ReadReq_mshr_miss_rate::total     0.000000                       # mshr miss rate for ReadReq accesses
system.cpu.icache.ReadReq_avg_mshr_miss_latency::.switch_cpus.inst 84833.333333                       # average ReadReq mshr miss latency
system.cpu.icache.ReadReq_avg_mshr_miss_latency::total 84833.333333                       # average ReadReq mshr miss latency
system.cpu.icache.ghosttags.tagsinuse               0                       # Cycle average of tags in use
system.cpu.icache.ghosttags.total_refs              0                       # Total number of references to valid blocks.
system.cpu.icache.ghosttags.sampled_refs            0                       # Sample count of references to valid blocks.
system.cpu.icache.ghosttags.avg_refs              nan                       # Average number of references to valid blocks.
system.cpu.icache.ghosttags.warmup_cycle            0                       # Cycle when the warmup percentage was hit.
system.cpu.icache.ghosttags.tag_accesses            0                       # Number of tag accesses
system.cpu.icache.ghosttags.data_accesses            0                       # Number of data accesses
system.cpu.icache.ghosttags.repl_invalid            0                       # Number of initial replacements
system.cpu.icache.ghosttags.repl_valid_tag            0                       # Number of local replacements
system.cpu.icache.ghosttags.repl_valid_data            0                       # Number of global replacements
system.cpu.icache.ghosttags.power_state.pwrStateResidencyTicks::UNDEFINED 6948686824000                       # Cumulative time (in ticks) in various power states
system.cpu.icache.power_state.pwrStateResidencyTicks::UNDEFINED 6948686824000                       # Cumulative time (in ticks) in various power states
system.cpu.icache.tags.tagsinuse            31.170409                       # Cycle average of tags in use
system.cpu.icache.tags.total_refs           154162598                       # Total number of references to valid blocks.
system.cpu.icache.tags.sampled_refs                35                       # Sample count of references to valid blocks.
system.cpu.icache.tags.avg_refs          4404645.657143                       # Average number of references to valid blocks.
system.cpu.icache.tags.warmup_cycle      5552222094000                       # Cycle when the warmup percentage was hit.
system.cpu.icache.tags.occ_blocks::.cpu.inst     2.000000                       # Average occupied blocks per requestor
system.cpu.icache.tags.occ_blocks::.switch_cpus.inst    29.170409                       # Average occupied blocks per requestor
system.cpu.icache.tags.occ_percent::.cpu.inst     0.003906                       # Average percentage of cache occupancy
system.cpu.icache.tags.occ_percent::.switch_cpus.inst     0.056973                       # Average percentage of cache occupancy
system.cpu.icache.tags.occ_percent::total     0.060880                       # Average percentage of cache occupancy
system.cpu.icache.tags.occ_task_id_blocks::1024           35                       # Occupied blocks per task id
system.cpu.icache.tags.age_task_id_blocks_1024::4           35                       # Occupied blocks per task id
system.cpu.icache.tags.occ_task_id_percent::1024     0.068359                       # Percentage of cache occupancy per task id
system.cpu.icache.tags.tag_accesses        1233300827                       # Number of tag accesses
system.cpu.icache.tags.data_accesses       1233300827                       # Number of data accesses
system.cpu.icache.tags.repl_invalid                 0                       # Number of initial replacements
system.cpu.icache.tags.repl_valid_tag               0                       # Number of local replacements
system.cpu.icache.tags.repl_valid_data              0                       # Number of global replacements
system.cpu.icache.tags.power_state.pwrStateResidencyTicks::UNDEFINED 6948686824000                       # Cumulative time (in ticks) in various power states
system.cpu.itb.instHits                             0                       # ITB inst hits
system.cpu.itb.instMisses                           0                       # ITB inst misses
system.cpu.itb.readHits                             0                       # DTB read hits
system.cpu.itb.readMisses                           0                       # DTB read misses
system.cpu.itb.writeHits                            0                       # DTB write hits
system.cpu.itb.writeMisses                          0                       # DTB write misses
system.cpu.itb.inserts                              0                       # Number of times an entry is inserted into the TLB
system.cpu.itb.flushTlb                             2                       # Number of times complete TLB was flushed
system.cpu.itb.flushTlbMva                          0                       # Number of times TLB was flushed by MVA
system.cpu.itb.flushTlbMvaAsid                      0                       # Number of times TLB was flushed by MVA & ASID
system.cpu.itb.flushTlbAsid                         0                       # Number of times TLB was flushed by ASID
system.cpu.itb.flushedEntries                       0                       # Number of entries that have been flushed from TLB
system.cpu.itb.alignFaults                          0                       # Number of TLB faults due to alignment restrictions
system.cpu.itb.prefetchFaults                       0                       # Number of TLB faults due to prefetch
system.cpu.itb.domainFaults                         0                       # Number of TLB faults due to domain restrictions
system.cpu.itb.permsFaults                          0                       # Number of TLB faults due to permissions restrictions
system.cpu.itb.readAccesses                         0                       # DTB read accesses
system.cpu.itb.writeAccesses                        0                       # DTB write accesses
system.cpu.itb.instAccesses                         0                       # ITB inst accesses
system.cpu.itb.hits                                 0                       # Total TLB (inst and data) hits
system.cpu.itb.misses                               0                       # Total TLB (inst and data) misses
system.cpu.itb.accesses                             0                       # Total TLB (inst and data) accesses
system.cpu.itb.stage2_mmu.stage2_tlb.instHits            0                       # ITB inst hits
system.cpu.itb.stage2_mmu.stage2_tlb.instMisses            0                       # ITB inst misses
system.cpu.itb.stage2_mmu.stage2_tlb.readHits            0                       # DTB read hits
system.cpu.itb.stage2_mmu.stage2_tlb.readMisses            0                       # DTB read misses
system.cpu.itb.stage2_mmu.stage2_tlb.writeHits            0                       # DTB write hits
system.cpu.itb.stage2_mmu.stage2_tlb.writeMisses            0                       # DTB write misses
system.cpu.itb.stage2_mmu.stage2_tlb.inserts            0                       # Number of times an entry is inserted into the TLB
system.cpu.itb.stage2_mmu.stage2_tlb.flushTlb            0                       # Number of times complete TLB was flushed
system.cpu.itb.stage2_mmu.stage2_tlb.flushTlbMva            0                       # Number of times TLB was flushed by MVA
system.cpu.itb.stage2_mmu.stage2_tlb.flushTlbMvaAsid            0                       # Number of times TLB was flushed by MVA & ASID
system.cpu.itb.stage2_mmu.stage2_tlb.flushTlbAsid            0                       # Number of times TLB was flushed by ASID
system.cpu.itb.stage2_mmu.stage2_tlb.flushedEntries            0                       # Number of entries that have been flushed from TLB
system.cpu.itb.stage2_mmu.stage2_tlb.alignFaults            0                       # Number of TLB faults due to alignment restrictions
system.cpu.itb.stage2_mmu.stage2_tlb.prefetchFaults            0                       # Number of TLB faults due to prefetch
system.cpu.itb.stage2_mmu.stage2_tlb.domainFaults            0                       # Number of TLB faults due to domain restrictions
system.cpu.itb.stage2_mmu.stage2_tlb.permsFaults            0                       # Number of TLB faults due to permissions restrictions
system.cpu.itb.stage2_mmu.stage2_tlb.readAccesses            0                       # DTB read accesses
system.cpu.itb.stage2_mmu.stage2_tlb.writeAccesses            0                       # DTB write accesses
system.cpu.itb.stage2_mmu.stage2_tlb.instAccesses            0                       # ITB inst accesses
system.cpu.itb.stage2_mmu.stage2_tlb.hits            0                       # Total TLB (inst and data) hits
system.cpu.itb.stage2_mmu.stage2_tlb.misses            0                       # Total TLB (inst and data) misses
system.cpu.itb.stage2_mmu.stage2_tlb.accesses            0                       # Total TLB (inst and data) accesses
system.cpu.itb.stage2_mmu.stage2_tlb.walker.walks            0                       # Table walker walks requested
system.cpu.itb.stage2_mmu.stage2_tlb.walker.requestOrigin_Requested::Data            0                       # Table walker requests started/completed, data/inst
[...]
system.switch_cpus.fetch.icacheStallCycles    155252668                       # Number of cycles fetch is stalled on an Icache miss
system.switch_cpus.fetch.insts             2112168000                       # Number of instructions fetch has processed
system.switch_cpus.fetch.branches            28904698                       # Number of branches that fetch encountered
system.switch_cpus.fetch.predictedBranches     19013050                       # Number of branches that fetch has predicted taken
system.switch_cpus.fetch.cycles            2636524943                       # Number of cycles fetch has run and was not squashing or blocked
system.switch_cpus.fetch.squashCycles         2294430                       # Number of cycles fetch has spent squashing
system.switch_cpus.fetch.pendingTrapStallCycles          618                       # Number of stall cycles due to pending traps
system.switch_cpus.fetch.cacheLines         154162579                       # Number of cache lines fetched
system.switch_cpus.fetch.icacheSquashes         28926                       # Number of outstanding Icache misses that were squashed
system.switch_cpus.fetch.nisnDist::samples   2792925444                       # Number of instructions fetched each cycle (Total)
system.switch_cpus.fetch.nisnDist::mean      0.801331                       # Number of instructions fetched each cycle (Total)
system.switch_cpus.fetch.nisnDist::stdev     2.273708                       # Number of instructions fetched each cycle (Total)
system.switch_cpus.fetch.nisnDist::underflows            0      0.00%      0.00% # Number of instructions fetched each cycle (Total)
system.switch_cpus.fetch.nisnDist::0       2452661513     87.82%     87.82% # Number of instructions fetched each cycle (Total)
system.switch_cpus.fetch.nisnDist::1          9716026      0.35%     88.16% # Number of instructions fetched each cycle (Total)
system.switch_cpus.fetch.nisnDist::2          5415184      0.19%     88.36% # Number of instructions fetched each cycle (Total)
system.switch_cpus.fetch.nisnDist::3         16007939      0.57%     88.93% # Number of instructions fetched each cycle (Total)
system.switch_cpus.fetch.nisnDist::4         66691454      2.39%     91.32% # Number of instructions fetched each cycle (Total)
system.switch_cpus.fetch.nisnDist::5          1210338      0.04%     91.36% # Number of instructions fetched each cycle (Total)
system.switch_cpus.fetch.nisnDist::6          8914702      0.32%     91.68% # Number of instructions fetched each cycle (Total)
system.switch_cpus.fetch.nisnDist::7         15285446      0.55%     92.23% # Number of instructions fetched each cycle (Total)
system.switch_cpus.fetch.nisnDist::8        217022842      7.77%    100.00% # Number of instructions fetched each cycle (Total)
system.switch_cpus.fetch.nisnDist::overflows            0      0.00%    100.00% # Number of instructions fetched each cycle (Total)
system.switch_cpus.fetch.nisnDist::min_value            0                       # Number of instructions fetched each cycle (Total)
system.switch_cpus.fetch.nisnDist::max_value            8                       # Number of instructions fetched each cycle (Total)
system.switch_cpus.fetch.nisnDist::total   2792925444                       # Number of instructions fetched each cycle (Total)
system.switch_cpus.fetch.branchRate          0.010349                       # Number of branch fetches per cycle
system.switch_cpus.fetch.rate                0.756255                       # Number of inst fetches per cycle
system.switch_cpus.itb.instHits                     0                       # ITB inst hits
system.switch_cpus.itb.instMisses                   0                       # ITB inst misses
system.switch_cpus.itb.readHits                     0                       # DTB read hits
system.switch_cpus.itb.readMisses                   0                       # DTB read misses
system.switch_cpus.itb.writeHits                    0                       # DTB write hits
system.switch_cpus.itb.writeMisses                  0                       # DTB write misses
system.switch_cpus.itb.inserts                      0                       # Number of times an entry is inserted into the TLB
system.switch_cpus.itb.flushTlb                     0                       # Number of times complete TLB was flushed
system.switch_cpus.itb.flushTlbMva                  0                       # Number of times TLB was flushed by MVA
system.switch_cpus.itb.flushTlbMvaAsid              0                       # Number of times TLB was flushed by MVA & ASID
system.switch_cpus.itb.flushTlbAsid                 0                       # Number of times TLB was flushed by ASID
system.switch_cpus.itb.flushedEntries               0                       # Number of entries that have been flushed from TLB
system.switch_cpus.itb.alignFaults                  0                       # Number of TLB faults due to alignment restrictions
system.switch_cpus.itb.prefetchFaults               0                       # Number of TLB faults due to prefetch
system.switch_cpus.itb.domainFaults                 0                       # Number of TLB faults due to domain restrictions
system.switch_cpus.itb.permsFaults                  0                       # Number of TLB faults due to permissions restrictions
system.switch_cpus.itb.readAccesses                 0                       # DTB read accesses
system.switch_cpus.itb.writeAccesses                0                       # DTB write accesses
system.switch_cpus.itb.instAccesses                 0                       # ITB inst accesses
system.switch_cpus.itb.hits                         0                       # Total TLB (inst and data) hits
system.switch_cpus.itb.misses                       0                       # Total TLB (inst and data) misses
system.switch_cpus.itb.accesses                     0                       # Total TLB (inst and data) accesses
system.switch_cpus.itb.stage2_mmu.stage2_tlb.instHits            0                       # ITB inst hits
system.switch_cpus.itb.stage2_mmu.stage2_tlb.instMisses            0                       # ITB inst misses
system.switch_cpus.itb.stage2_mmu.stage2_tlb.readHits            0                       # DTB read hits
system.switch_cpus.itb.stage2_mmu.stage2_tlb.readMisses            0                       # DTB read misses
system.switch_cpus.itb.stage2_mmu.stage2_tlb.writeHits            0                       # DTB write hits
system.switch_cpus.itb.stage2_mmu.stage2_tlb.writeMisses            0                       # DTB write misses
system.switch_cpus.itb.stage2_mmu.stage2_tlb.inserts            0                       # Number of times an entry is inserted into the TLB
system.switch_cpus.itb.stage2_mmu.stage2_tlb.flushTlb            0                       # Number of times complete TLB was flushed
system.switch_cpus.itb.stage2_mmu.stage2_tlb.flushTlbMva            0                       # Number of times TLB was flushed by MVA
system.switch_cpus.itb.stage2_mmu.stage2_tlb.flushTlbMvaAsid            0                       # Number of times TLB was flushed by MVA & ASID
system.switch_cpus.itb.stage2_mmu.stage2_tlb.flushTlbAsid            0                       # Number of times TLB was flushed by ASID
system.switch_cpus.itb.stage2_mmu.stage2_tlb.flushedEntries            0                       # Number of entries that have been flushed from TLB
system.switch_cpus.itb.stage2_mmu.stage2_tlb.alignFaults            0                       # Number of TLB faults due to alignment restrictions
system.switch_cpus.itb.stage2_mmu.stage2_tlb.prefetchFaults            0                       # Number of TLB faults due to prefetch
system.switch_cpus.itb.stage2_mmu.stage2_tlb.domainFaults            0                       # Number of TLB faults due to domain restrictions
system.switch_cpus.itb.stage2_mmu.stage2_tlb.permsFaults            0                       # Number of TLB faults due to permissions restrictions
system.switch_cpus.itb.stage2_mmu.stage2_tlb.readAccesses            0                       # DTB read accesses
system.switch_cpus.itb.stage2_mmu.stage2_tlb.writeAccesses            0                       # DTB write accesses
system.switch_cpus.itb.stage2_mmu.stage2_tlb.instAccesses            0                       # ITB inst accesses
system.switch_cpus.itb.stage2_mmu.stage2_tlb.hits            0                       # Total TLB (inst and data) hits
system.switch_cpus.itb.stage2_mmu.stage2_tlb.misses            0                       # Total TLB (inst and data) misses
system.switch_cpus.itb.stage2_mmu.stage2_tlb.accesses            0                       # Total TLB (inst and data) accesses
system.switch_cpus.itb.stage2_mmu.stage2_tlb.walker.walks            0                       # Table walker walks requested
system.switch_cpus.itb.stage2_mmu.stage2_tlb.walker.requestOrigin_Requested::Data            0                       # Table walker requests started/completed, data/inst
system.switch_cpus.itb.stage2_mmu.stage2_tlb.walker.requestOrigin_Requested::Inst            0                       # Table walker requests started/completed, data/inst
system.switch_cpus.itb.stage2_mmu.stage2_tlb.walker.requestOrigin_Requested::total            0                       # Table walker requests started/completed, data/inst
system.switch_cpus.itb.stage2_mmu.stage2_tlb.walker.requestOrigin_Completed::Data            0                       # Table walker requests started/completed, data/inst
system.switch_cpus.itb.stage2_mmu.stage2_tlb.walker.requestOrigin_Completed::Inst            0                       # Table walker requests started/completed, data/inst
system.switch_cpus.itb.stage2_mmu.stage2_tlb.walker.requestOrigin_Completed::total            0                       # Table walker requests started/completed, data/inst
system.switch_cpus.itb.stage2_mmu.stage2_tlb.walker.requestOrigin::total            0                       # Table walker requests started/completed, data/inst
system.switch_cpus.itb.stage2_mmu.stage2_tlb.walker.power_state.pwrStateResidencyTicks::UNDEFINED 6948686824000                       # Cumulative time (in ticks) in various power states
system.switch_cpus.itb.walker.walks                 0                       # Table walker walks requested
system.switch_cpus.itb.walker.requestOrigin_Requested::Data            0                       # Table walker requests started/completed, data/inst
system.switch_cpus.itb.walker.requestOrigin_Requested::Inst            0                       # Table walker requests started/completed, data/inst
system.switch_cpus.itb.walker.requestOrigin_Requested::total            0                       # Table walker requests started/completed, data/inst
system.switch_cpus.itb.walker.requestOrigin_Completed::Data            0                       # Table walker requests started/completed, data/inst
system.switch_cpus.itb.walker.requestOrigin_Completed::Inst            0                       # Table walker requests started/completed, data/inst
system.switch_cpus.itb.walker.requestOrigin_Completed::total            0                       # Table walker requests started/completed, data/inst
system.switch_cpus.itb.walker.requestOrigin::total            0                       # Table walker requests started/completed, data/inst
system.switch_cpus.itb.walker.power_state.pwrStateResidencyTicks::UNDEFINED 6948686824000                       # Cumulative time (in ticks) in various power states
system.switch_cpus.lsq0.forwLoads            30228554                       # Number of loads that had data forwarded from stores
system.switch_cpus.lsq0.squashedLoads        13206016                       # Number of loads squashed
system.switch_cpus.lsq0.ignoredResponses          292                       # Number of memory responses ignored because the instruction is squashed
system.switch_cpus.lsq0.memOrderViolation         9909                       # Number of memory ordering violations
system.switch_cpus.lsq0.squashedStores       13659516                       # Number of stores squashed
system.switch_cpus.lsq0.rescheduledLoads            3                       # Number of loads that were rescheduled
system.switch_cpus.lsq0.blockedByCache      154008221                       # Number of times an access to memory failed due to the cache being blocked
system.switch_cpus.power_state.pwrStateResidencyTicks::OFF 1396464730500                       # Cumulative time (in ticks) in various power states
system.switch_cpus.rename.squashCycles        1147210                       # Number of cycles rename is squashing
system.switch_cpus.rename.idleCycles        108616443                       # Number of cycles rename is idle
system.switch_cpus.rename.blockCycles      1208877876                       # Number of cycles rename is blocking
system.switch_cpus.rename.serializeStallCycles            0                       # count of cycles rename stalledfor serializing inst
system.switch_cpus.rename.runCycles         224192146                       # Number of cycles rename is running
system.switch_cpus.rename.unblockCycles    1250091749                       # Number of cycles rename is unblocking
system.switch_cpus.rename.renamedInsts     2179847200                       # Number of instructions processed by rename
system.switch_cpus.rename.ROBFullEvents        151387                       # Number of times rename has blocked due to ROB full
system.switch_cpus.rename.IQFullEvents      206685535                       # Number of times rename has blocked due to IQ full
system.switch_cpus.rename.LQFullEvents      158261035                       # Number of times rename has blocked due to LQ full
system.switch_cpus.rename.SQFullEvents      908639931                       # Number of times rename has blocked due to SQ full
system.switch_cpus.rename.renamedOperands   3183290451                       # Number of destination operands rename has renamed
system.switch_cpus.rename.lookups          8947849104                       # Number of register rename lookups that rename has made
system.switch_cpus.rename.intLookups        917229974                       # Number of integer rename lookups
system.switch_cpus.rename.vecLookups       2817255931                       # Number of vector rename lookups
system.switch_cpus.rename.committedMaps    3100868567                       # Number of HB maps that are committed
system.switch_cpus.rename.undoneMaps         82421846                       # Number of HB maps that are undone due to squashing
system.switch_cpus.rename.serializing               0                       # count of serializing insts renamed
system.switch_cpus.rename.tempSerializing            0                       # count of temporary serializing insts renamed
system.switch_cpus.rename.skidInsts         702489020                       # count of insts added to the skid buffer
system.switch_cpus.rob.reads               4761513164                       # The number of ROB reads
system.switch_cpus.rob.writes              4365016771                       # The number of ROB writes
system.switch_cpus.thread0.numInsts        2000000007                       # Number of Instructions committed
system.switch_cpus.thread0.numOps          2113800133                       # Number of Ops committed
system.switch_cpus.thread0.numMemRefs               0                       # Number of Memory References
system.tol2bus.trans_dist::ReadResp          27225814                       # Transaction distribution
system.tol2bus.trans_dist::WritebackDirty    233982211                       # Transaction distribution
system.tol2bus.trans_dist::WritebackClean     27225603                       # Transaction distribution
system.tol2bus.trans_dist::CleanEvict        27182099                       # Transaction distribution
system.tol2bus.trans_dist::HardPFReq        161431147                       # Transaction distribution
system.tol2bus.trans_dist::ReadExReq        152434021                       # Transaction distribution
system.tol2bus.trans_dist::ReadExResp       152434017                       # Transaction distribution
system.tol2bus.trans_dist::ReadCleanReq            35                       # Transaction distribution
system.tol2bus.trans_dist::ReadSharedReq     27225779                       # Transaction distribution
system.tol2bus.trans_dist::InvalidateReq          141                       # Transaction distribution
system.tol2bus.trans_dist::InvalidateResp          141                       # Transaction distribution
system.tol2bus.pkt_count_system.cpu.icache.mem_side_port::system.l2.cpu_side_port           70                       # Packet count per connected requestor and responder (bytes)
system.tol2bus.pkt_count_system.cpu.dcache.mem_side_port::system.l2.cpu_side_port    538979303                       # Packet count per connected requestor and responder (bytes)
system.tol2bus.pkt_count::total             538979373                       # Packet count per connected requestor and responder (bytes)
system.tol2bus.pkt_size_system.cpu.icache.mem_side_port::system.l2.cpu_side_port         2240                       # Cumulative packet size per connected requestor and responder (bytes)
system.tol2bus.pkt_size_system.cpu.dcache.mem_side_port::system.l2.cpu_side_port  22996430144                       # Cumulative packet size per connected requestor and responder (bytes)
system.tol2bus.pkt_size::total            22996432384                       # Cumulative packet size per connected requestor and responder (bytes)
system.tol2bus.snoops                       270161635                       # Total snoops (count)
system.tol2bus.snoopTraffic                5219096896                       # Total snoop traffic (bytes)
system.tol2bus.snoop_fanout::samples        449826574                       # Request fanout histogram
system.tol2bus.snoop_fanout::mean            0.000003                       # Request fanout histogram
system.tol2bus.snoop_fanout::stdev           0.001798                       # Request fanout histogram
system.tol2bus.snoop_fanout::underflows             0      0.00%      0.00% # Request fanout histogram
system.tol2bus.snoop_fanout::0              449825120    100.00%    100.00% # Request fanout histogram
system.tol2bus.snoop_fanout::1                   1454      0.00%    100.00% # Request fanout histogram
system.tol2bus.snoop_fanout::2                      0      0.00%    100.00% # Request fanout histogram
system.tol2bus.snoop_fanout::overflows              0      0.00%    100.00% # Request fanout histogram
system.tol2bus.snoop_fanout::min_value              0                       # Request fanout histogram
system.tol2bus.snoop_fanout::max_value              1                       # Request fanout histogram
system.tol2bus.snoop_fanout::total          449826574                       # Request fanout histogram
system.tol2bus.power_state.pwrStateResidencyTicks::UNDEFINED 6948686824000                       # Cumulative time (in ticks) in various power states
system.tol2bus.reqLayer0.occupancy       359353431579                       # Layer occupancy (ticks)
system.tol2bus.reqLayer0.utilization             25.7                       # Layer utilization (%)
system.tol2bus.respLayer0.occupancy             49500                       # Layer occupancy (ticks)
system.tol2bus.respLayer0.utilization             0.0                       # Layer utilization (%)
system.tol2bus.respLayer1.occupancy      269489761500                       # Layer occupancy (ticks)
system.tol2bus.respLayer1.utilization            19.3                       # Layer utilization (%)
system.voltage_domain.voltage                       1                       # Voltage in Volts

---------- End Simulation Statistics   ----------
