
---------- Begin Simulation Statistics ----------
final_tick                               6238276238500                       # Number of ticks from beginning of simulation (restored from checkpoints and never reset)
host_inst_rate                                 401543                       # Simulator instruction rate (inst/s)
host_mem_usage                               17032784                       # Number of bytes of host memory used
host_op_rate                                   453643                       # Simulator op (including micro ops) rate (op/s)
host_seconds                                  4980.78                       # Real time elapsed on the host
host_tick_rate                               99785215                       # Simulator tick rate (ticks/s)
sim_freq                                 1000000000000                       # Frequency of simulated ticks
sim_insts                                  2000000024                       # Number of instructions simulated
sim_ops                                    2259497434                       # Number of ops (including micro ops) simulated
sim_seconds                                  0.497008                       # Number of seconds simulated
sim_ticks                                497008395500                       # Number of ticks simulated
system.cpu.Branches                                 3                       # Number of branches fetched
system.cpu.committedInsts                          20                       # Number of instructions committed
system.cpu.committedOps                            20                       # Number of ops (including micro ops) committed
system.cpu.dcache.MSHRs.leapFrogMisses          19296                       # number of false blocks from MSHR
system.cpu.icache.MSHRs.leapFrogMisses              0                       # number of false blocks from MSHR
system.cpu.idle_fraction                            0                       # Percentage of idle cycles
system.cpu.not_idle_fraction                        1                       # Percentage of non-idle cycles
system.cpu.numCycles                               20                       # number of cpu cycles simulated
system.cpu.numWorkItemsCompleted                    0                       # number of work items this cpu completed
system.cpu.numWorkItemsStarted                      0                       # number of work items this cpu started
system.cpu.num_busy_cycles                         20                       # Number of busy cycles
system.cpu.num_cc_register_reads                    6                       # number of times the CC registers were read
system.cpu.num_cc_register_writes                   9                       # number of times the CC registers were written
system.cpu.num_conditional_control_insts            1                       # number of instructions that are conditional controls
system.cpu.num_fp_alu_accesses                      0                       # Number of float alu accesses
system.cpu.num_fp_insts                             0                       # number of float instructions
system.cpu.num_fp_register_reads                    0                       # number of times the floating registers were read
system.cpu.num_fp_register_writes                   0                       # number of times the floating registers were written
system.cpu.num_func_calls                           0                       # number of times a function call or return occured
system.cpu.num_idle_cycles                          0                       # Number of idle cycles
system.cpu.num_int_alu_accesses                    19                       # Number of integer alu accesses
system.cpu.num_int_insts                           19                       # number of integer instructions
system.cpu.num_int_register_reads                  18                       # number of times the integer registers were read
system.cpu.num_int_register_writes                 15                       # number of times the integer registers were written
system.cpu.num_load_insts                           6                       # Number of load instructions
system.cpu.num_mem_refs                             6                       # number of memory refs
system.cpu.num_store_insts                          0                       # Number of store instructions
system.cpu.num_vec_alu_accesses                     0                       # Number of vector alu accesses
system.cpu.num_vec_insts                            0                       # number of vector instructions
system.cpu.num_vec_register_reads                   0                       # number of times the vector registers were read
system.cpu.num_vec_register_writes                  0                       # number of times the vector registers were written
system.cpu.op_class::No_OpClass                     0      0.00%      0.00% # Class of executed instruction
system.cpu.op_class::IntAlu                        14     70.00%     70.00% # Class of executed instruction
system.cpu.op_class::IntMult                        0      0.00%     70.00% # Class of executed instruction
system.cpu.op_class::IntDiv                         0      0.00%     70.00% # Class of executed instruction
system.cpu.op_class::FloatAdd                       0      0.00%     70.00% # Class of executed instruction
system.cpu.op_class::FloatCmp                       0      0.00%     70.00% # Class of executed instruction
system.cpu.op_class::FloatCvt                       0      0.00%     70.00% # Class of executed instruction
system.cpu.op_class::FloatMult                      0      0.00%     70.00% # Class of executed instruction
system.cpu.op_class::FloatMultAcc                   0      0.00%     70.00% # Class of executed instruction
system.cpu.op_class::FloatDiv                       0      0.00%     70.00% # Class of executed instruction
system.cpu.op_class::FloatMisc                      0      0.00%     70.00% # Class of executed instruction
system.cpu.op_class::FloatSqrt                      0      0.00%     70.00% # Class of executed instruction
system.cpu.op_class::SimdAdd                        0      0.00%     70.00% # Class of executed instruction
system.cpu.op_class::SimdAddAcc                     0      0.00%     70.00% # Class of executed instruction
system.cpu.op_class::SimdAlu                        0      0.00%     70.00% # Class of executed instruction
system.cpu.op_class::SimdCmp                        0      0.00%     70.00% # Class of executed instruction
system.cpu.op_class::SimdCvt                        0      0.00%     70.00% # Class of executed instruction
system.cpu.op_class::SimdMisc                       0      0.00%     70.00% # Class of executed instruction
system.cpu.op_class::SimdMult                       0      0.00%     70.00% # Class of executed instruction
system.cpu.op_class::SimdMultAcc                    0      0.00%     70.00% # Class of executed instruction
system.cpu.op_class::SimdShift                      0      0.00%     70.00% # Class of executed instruction
system.cpu.op_class::SimdShiftAcc                   0      0.00%     70.00% # Class of executed instruction
system.cpu.op_class::SimdDiv                        0      0.00%     70.00% # Class of executed instruction
system.cpu.op_class::SimdSqrt                       0      0.00%     70.00% # Class of executed instruction
system.cpu.op_class::SimdFloatAdd                   0      0.00%     70.00% # Class of executed instruction
system.cpu.op_class::SimdFloatAlu                   0      0.00%     70.00% # Class of executed instruction
system.cpu.op_class::SimdFloatCmp                   0      0.00%     70.00% # Class of executed instruction
system.cpu.op_class::SimdFloatCvt                   0      0.00%     70.00% # Class of executed instruction
system.cpu.op_class::SimdFloatDiv                   0      0.00%     70.00% # Class of executed instruction
system.cpu.op_class::SimdFloatMisc                  0      0.00%     70.00% # Class of executed instruction
system.cpu.op_class::SimdFloatMult                  0      0.00%     70.00% # Class of executed instruction
system.cpu.op_class::SimdFloatMultAcc               0      0.00%     70.00% # Class of executed instruction
system.cpu.op_class::SimdFloatSqrt                  0      0.00%     70.00% # Class of executed instruction
system.cpu.op_class::SimdReduceAdd                  0      0.00%     70.00% # Class of executed instruction
system.cpu.op_class::SimdReduceAlu                  0      0.00%     70.00% # Class of executed instruction
system.cpu.op_class::SimdReduceCmp                  0      0.00%     70.00% # Class of executed instruction
system.cpu.op_class::SimdFloatReduceAdd             0      0.00%     70.00% # Class of executed instruction
system.cpu.op_class::SimdFloatReduceCmp             0      0.00%     70.00% # Class of executed instruction
system.cpu.op_class::SimdAes                        0      0.00%     70.00% # Class of executed instruction
system.cpu.op_class::SimdAesMix                     0      0.00%     70.00% # Class of executed instruction
system.cpu.op_class::SimdSha1Hash                   0      0.00%     70.00% # Class of executed instruction
system.cpu.op_class::SimdSha1Hash2                  0      0.00%     70.00% # Class of executed instruction
system.cpu.op_class::SimdSha256Hash                 0      0.00%     70.00% # Class of executed instruction
system.cpu.op_class::SimdSha256Hash2                0      0.00%     70.00% # Class of executed instruction
system.cpu.op_class::SimdShaSigma2                  0      0.00%     70.00% # Class of executed instruction
system.cpu.op_class::SimdShaSigma3                  0      0.00%     70.00% # Class of executed instruction
system.cpu.op_class::SimdPredAlu                    0      0.00%     70.00% # Class of executed instruction
system.cpu.op_class::MemRead                        6     30.00%    100.00% # Class of executed instruction
system.cpu.op_class::MemWrite                       0      0.00%    100.00% # Class of executed instruction
system.cpu.op_class::FloatMemRead                   0      0.00%    100.00% # Class of executed instruction
system.cpu.op_class::FloatMemWrite                  0      0.00%    100.00% # Class of executed instruction
system.cpu.op_class::IprAccess                      0      0.00%    100.00% # Class of executed instruction
system.cpu.op_class::InstPrefetch                   0      0.00%    100.00% # Class of executed instruction
system.cpu.op_class::total                         20                       # Class of executed instruction
system.cpu.workload.numSyscalls                    27                       # Number of system calls
system.l2.MSHRs.leapFrogMisses                      0                       # number of false blocks from MSHR
system.membus.snoop_filter.hit_multi_requests            0                       # Number of requests hitting in the snoop filter with multiple (>1) holders of the requested data.
system.membus.snoop_filter.hit_multi_snoops            0                       # Number of snoops hitting in the snoop filter with multiple (>1) holders of the requested data.
system.membus.snoop_filter.hit_single_requests        27607                       # Number of requests hitting in the snoop filter with a single holder of the requested data.
system.membus.snoop_filter.hit_single_snoops            0                       # Number of snoops hitting in the snoop filter with a single holder of the requested data.
system.membus.snoop_filter.tot_requests        165954                       # Total number of requests made to the snoop filter.
system.membus.snoop_filter.tot_snoops               0                       # Total number of snoops made to the snoop filter.
system.switch_cpus.cc_regfile_reads         658573653                       # number of cc regfile reads
system.switch_cpus.cc_regfile_writes        656204378                       # number of cc regfile writes
system.switch_cpus.committedInsts          2000000004                       # Number of Instructions Simulated
system.switch_cpus.committedOps            2259497414                       # Number of Ops (including micro ops) Simulated
system.switch_cpus.cpi                       0.497008                       # CPI: Cycles Per Instruction
system.switch_cpus.cpi_total                 0.497008                       # CPI: Total CPI of All Threads
system.switch_cpus.idleCycles                15696537                       # Total number of cycles that the CPU has spent unscheduled due to idling
system.switch_cpus.iew.branchMispredicts      8085224                       # Number of branch mispredicts detected at execute
system.switch_cpus.iew.exec_branches        376083053                       # Number of branches executed
system.switch_cpus.iew.exec_nop              10073651                       # number of nop insts executed
system.switch_cpus.iew.exec_rate             2.433225                       # Inst execution rate
system.switch_cpus.iew.exec_refs            997379120                       # number of memory reference insts executed
system.switch_cpus.iew.exec_stores          386787586                       # Number of stores executed
system.switch_cpus.iew.exec_swp                     0                       # number of swp insts executed
system.switch_cpus.iew.iewBlockCycles        29243707                       # Number of cycles IEW is blocking
system.switch_cpus.iew.iewDispLoadInsts     620212150                       # Number of dispatched load instructions
system.switch_cpus.iew.iewDispNonSpecInsts        23092                       # Number of dispatched non-speculative instructions
system.switch_cpus.iew.iewDispSquashedInsts      1643743                       # Number of squashed instructions skipped by dispatch
system.switch_cpus.iew.iewDispStoreInsts    400330449                       # Number of dispatched store instructions
system.switch_cpus.iew.iewDispatchedInsts   2498978236                       # Number of instructions dispatched to IQ
system.switch_cpus.iew.iewExecLoadInsts     610591534                       # Number of load instructions executed
system.switch_cpus.iew.iewExecSquashedInsts     13051594                       # Number of squashed instructions skipped in execute
system.switch_cpus.iew.iewExecutedInsts    2418666363                       # Number of executed instructions
system.switch_cpus.iew.iewIQFullEvents         247402                       # Number of times the IQ has become full, causing a stall
system.switch_cpus.iew.iewIdleCycles                0                       # Number of cycles IEW is idle
system.switch_cpus.iew.iewLSQFullEvents       6754775                       # Number of times the LSQ has become full, causing a stall
system.switch_cpus.iew.iewSquashCycles        7369864                       # Number of cycles IEW is squashing
system.switch_cpus.iew.iewUnblockCycles       7011049                       # Number of cycles IEW is unblocking
system.switch_cpus.iew.memOrderViolationEvents       231656                       # Number of memory order violations
system.switch_cpus.iew.predictedNotTakenIncorrect      4228225                       # Number of branches that were predicted not taken incorrectly
system.switch_cpus.iew.predictedTakenIncorrect      3856999                       # Number of branches that were predicted taken incorrectly
system.switch_cpus.iew.wb_consumers        2171019747                       # num instructions consuming a value
system.switch_cpus.iew.wb_count            2398998782                       # cumulative count of insts written-back
system.switch_cpus.iew.wb_fanout             0.586279                       # average fanout of values written-back
system.switch_cpus.iew.wb_producers        1272823028                       # num instructions producing a value
system.switch_cpus.iew.wb_rate               2.413439                       # insts written-back per cycle
system.switch_cpus.iew.wb_sent             2402943295                       # cumulative count of insts sent to commit
system.switch_cpus.int_regfile_reads       2756871853                       # number of integer regfile reads
system.switch_cpus.int_regfile_writes      1722450915                       # number of integer regfile writes
system.switch_cpus.ipc                       2.012038                       # IPC: Instructions Per Cycle
system.switch_cpus.ipc_total                 2.012038                       # IPC: Total IPC of All Threads
system.switch_cpus.iq.FU_type_0::No_OpClass        19489      0.00%      0.00% # Type of FU issued
system.switch_cpus.iq.FU_type_0::IntAlu    1424384669     58.58%     58.58% # Type of FU issued
system.switch_cpus.iq.FU_type_0::IntMult      1291192      0.05%     58.63% # Type of FU issued
system.switch_cpus.iq.FU_type_0::IntDiv        178084      0.01%     58.64% # Type of FU issued
system.switch_cpus.iq.FU_type_0::FloatAdd         1527      0.00%     58.64% # Type of FU issued
system.switch_cpus.iq.FU_type_0::FloatCmp        10990      0.00%     58.64% # Type of FU issued
system.switch_cpus.iq.FU_type_0::FloatCvt         4013      0.00%     58.64% # Type of FU issued
system.switch_cpus.iq.FU_type_0::FloatMult         1018      0.00%     58.64% # Type of FU issued
system.switch_cpus.iq.FU_type_0::FloatMultAcc         1520      0.00%     58.64% # Type of FU issued
system.switch_cpus.iq.FU_type_0::FloatDiv          624      0.00%     58.64% # Type of FU issued
system.switch_cpus.iq.FU_type_0::FloatMisc        47909      0.00%     58.64% # Type of FU issued
system.switch_cpus.iq.FU_type_0::FloatSqrt            0      0.00%     58.64% # Type of FU issued
system.switch_cpus.iq.FU_type_0::SimdAdd        66647      0.00%     58.64% # Type of FU issued
system.switch_cpus.iq.FU_type_0::SimdAddAcc            2      0.00%     58.64% # Type of FU issued
system.switch_cpus.iq.FU_type_0::SimdAlu       275587      0.01%     58.65% # Type of FU issued
system.switch_cpus.iq.FU_type_0::SimdCmp       391998      0.02%     58.67% # Type of FU issued
system.switch_cpus.iq.FU_type_0::SimdCvt         1527      0.00%     58.67% # Type of FU issued
system.switch_cpus.iq.FU_type_0::SimdMisc       221697      0.01%     58.68% # Type of FU issued
system.switch_cpus.iq.FU_type_0::SimdMult            0      0.00%     58.68% # Type of FU issued
system.switch_cpus.iq.FU_type_0::SimdMultAcc            0      0.00%     58.68% # Type of FU issued
system.switch_cpus.iq.FU_type_0::SimdShift        26291      0.00%     58.68% # Type of FU issued
system.switch_cpus.iq.FU_type_0::SimdShiftAcc            0      0.00%     58.68% # Type of FU issued
system.switch_cpus.iq.FU_type_0::SimdDiv            0      0.00%     58.68% # Type of FU issued
system.switch_cpus.iq.FU_type_0::SimdSqrt            0      0.00%     58.68% # Type of FU issued
system.switch_cpus.iq.FU_type_0::SimdFloatAdd            0      0.00%     58.68% # Type of FU issued
system.switch_cpus.iq.FU_type_0::SimdFloatAlu            0      0.00%     58.68% # Type of FU issued
system.switch_cpus.iq.FU_type_0::SimdFloatCmp          376      0.00%     58.68% # Type of FU issued
system.switch_cpus.iq.FU_type_0::SimdFloatCvt            0      0.00%     58.68% # Type of FU issued
system.switch_cpus.iq.FU_type_0::SimdFloatDiv            0      0.00%     58.68% # Type of FU issued
system.switch_cpus.iq.FU_type_0::SimdFloatMisc            0      0.00%     58.68% # Type of FU issued
system.switch_cpus.iq.FU_type_0::SimdFloatMult            1      0.00%     58.68% # Type of FU issued
system.switch_cpus.iq.FU_type_0::SimdFloatMultAcc            7      0.00%     58.68% # Type of FU issued
system.switch_cpus.iq.FU_type_0::SimdFloatSqrt            0      0.00%     58.68% # Type of FU issued
system.switch_cpus.iq.FU_type_0::SimdReduceAdd            0      0.00%     58.68% # Type of FU issued
system.switch_cpus.iq.FU_type_0::SimdReduceAlu            0      0.00%     58.68% # Type of FU issued
system.switch_cpus.iq.FU_type_0::SimdReduceCmp            0      0.00%     58.68% # Type of FU issued
system.switch_cpus.iq.FU_type_0::SimdFloatReduceAdd            0      0.00%     58.68% # Type of FU issued
system.switch_cpus.iq.FU_type_0::SimdFloatReduceCmp            0      0.00%     58.68% # Type of FU issued
system.switch_cpus.iq.FU_type_0::SimdAes            0      0.00%     58.68% # Type of FU issued
system.switch_cpus.iq.FU_type_0::SimdAesMix            0      0.00%     58.68% # Type of FU issued
system.switch_cpus.iq.FU_type_0::SimdSha1Hash            0      0.00%     58.68% # Type of FU issued
system.switch_cpus.iq.FU_type_0::SimdSha1Hash2            0      0.00%     58.68% # Type of FU issued
system.switch_cpus.iq.FU_type_0::SimdSha256Hash            0      0.00%     58.68% # Type of FU issued
system.switch_cpus.iq.FU_type_0::SimdSha256Hash2            0      0.00%     58.68% # Type of FU issued
system.switch_cpus.iq.FU_type_0::SimdShaSigma2            0      0.00%     58.68% # Type of FU issued
system.switch_cpus.iq.FU_type_0::SimdShaSigma3            0      0.00%     58.68% # Type of FU issued
system.switch_cpus.iq.FU_type_0::SimdPredAlu            2      0.00%     58.68% # Type of FU issued
system.switch_cpus.iq.FU_type_0::MemRead    615053918     25.29%     83.97% # Type of FU issued
system.switch_cpus.iq.FU_type_0::MemWrite    389738871     16.03%    100.00% # Type of FU issued
system.switch_cpus.iq.FU_type_0::FloatMemRead            0      0.00%    100.00% # Type of FU issued
system.switch_cpus.iq.FU_type_0::FloatMemWrite            0      0.00%    100.00% # Type of FU issued
system.switch_cpus.iq.FU_type_0::IprAccess            0      0.00%    100.00% # Type of FU issued
system.switch_cpus.iq.FU_type_0::InstPrefetch            0      0.00%    100.00% # Type of FU issued
system.switch_cpus.iq.FU_type_0::total     2431717959                       # Type of FU issued
system.switch_cpus.iq.fp_alu_accesses               0                       # Number of floating point alu accesses
system.switch_cpus.iq.fp_inst_queue_reads            0                       # Number of floating instruction queue reads
system.switch_cpus.iq.fp_inst_queue_wakeup_accesses            0                       # Number of floating instruction queue wakeup accesses
system.switch_cpus.iq.fp_inst_queue_writes            0                       # Number of floating instruction queue writes
system.switch_cpus.iq.fu_busy_cnt            62315277                       # FU busy when requested
system.switch_cpus.iq.fu_busy_rate           0.025626                       # FU busy rate (busy events/executed inst)
system.switch_cpus.iq.fu_full::No_OpClass            0      0.00%      0.00% # attempts to use FU when none available
system.switch_cpus.iq.fu_full::IntAlu         6480774     10.40%     10.40% # attempts to use FU when none available
system.switch_cpus.iq.fu_full::IntMult            313      0.00%     10.40% # attempts to use FU when none available
system.switch_cpus.iq.fu_full::IntDiv             438      0.00%     10.40% # attempts to use FU when none available
system.switch_cpus.iq.fu_full::FloatAdd             1      0.00%     10.40% # attempts to use FU when none available
system.switch_cpus.iq.fu_full::FloatCmp             1      0.00%     10.40% # attempts to use FU when none available
system.switch_cpus.iq.fu_full::FloatCvt             0      0.00%     10.40% # attempts to use FU when none available
system.switch_cpus.iq.fu_full::FloatMult          223      0.00%     10.40% # attempts to use FU when none available
system.switch_cpus.iq.fu_full::FloatMultAcc           80      0.00%     10.40% # attempts to use FU when none available
system.switch_cpus.iq.fu_full::FloatDiv             0      0.00%     10.40% # attempts to use FU when none available
system.switch_cpus.iq.fu_full::FloatMisc          890      0.00%     10.40% # attempts to use FU when none available
system.switch_cpus.iq.fu_full::FloatSqrt            0      0.00%     10.40% # attempts to use FU when none available
system.switch_cpus.iq.fu_full::SimdAdd              0      0.00%     10.40% # attempts to use FU when none available
system.switch_cpus.iq.fu_full::SimdAddAcc            0      0.00%     10.40% # attempts to use FU when none available
system.switch_cpus.iq.fu_full::SimdAlu             59      0.00%     10.40% # attempts to use FU when none available
system.switch_cpus.iq.fu_full::SimdCmp              2      0.00%     10.40% # attempts to use FU when none available
system.switch_cpus.iq.fu_full::SimdCvt              0      0.00%     10.40% # attempts to use FU when none available
system.switch_cpus.iq.fu_full::SimdMisc          5057      0.01%     10.41% # attempts to use FU when none available
system.switch_cpus.iq.fu_full::SimdMult             0      0.00%     10.41% # attempts to use FU when none available
system.switch_cpus.iq.fu_full::SimdMultAcc            0      0.00%     10.41% # attempts to use FU when none available
system.switch_cpus.iq.fu_full::SimdShift         1029      0.00%     10.41% # attempts to use FU when none available
system.switch_cpus.iq.fu_full::SimdShiftAcc            0      0.00%     10.41% # attempts to use FU when none available
system.switch_cpus.iq.fu_full::SimdDiv              0      0.00%     10.41% # attempts to use FU when none available
system.switch_cpus.iq.fu_full::SimdSqrt             0      0.00%     10.41% # attempts to use FU when none available
system.switch_cpus.iq.fu_full::SimdFloatAdd            0      0.00%     10.41% # attempts to use FU when none available
system.switch_cpus.iq.fu_full::SimdFloatAlu            0      0.00%     10.41% # attempts to use FU when none available
system.switch_cpus.iq.fu_full::SimdFloatCmp            0      0.00%     10.41% # attempts to use FU when none available
system.switch_cpus.iq.fu_full::SimdFloatCvt            0      0.00%     10.41% # attempts to use FU when none available
system.switch_cpus.iq.fu_full::SimdFloatDiv            0      0.00%     10.41% # attempts to use FU when none available
system.switch_cpus.iq.fu_full::SimdFloatMisc            0      0.00%     10.41% # attempts to use FU when none available
system.switch_cpus.iq.fu_full::SimdFloatMult            0      0.00%     10.41% # attempts to use FU when none available
system.switch_cpus.iq.fu_full::SimdFloatMultAcc            0      0.00%     10.41% # attempts to use FU when none available
system.switch_cpus.iq.fu_full::SimdFloatSqrt            0      0.00%     10.41% # attempts to use FU when none available
system.switch_cpus.iq.fu_full::SimdReduceAdd            0      0.00%     10.41% # attempts to use FU when none available
system.switch_cpus.iq.fu_full::SimdReduceAlu            0      0.00%     10.41% # attempts to use FU when none available
system.switch_cpus.iq.fu_full::SimdReduceCmp            0      0.00%     10.41% # attempts to use FU when none available
system.switch_cpus.iq.fu_full::SimdFloatReduceAdd            0      0.00%     10.41% # attempts to use FU when none available
system.switch_cpus.iq.fu_full::SimdFloatReduceCmp            0      0.00%     10.41% # attempts to use FU when none available
system.switch_cpus.iq.fu_full::SimdAes              0      0.00%     10.41% # attempts to use FU when none available
system.switch_cpus.iq.fu_full::SimdAesMix            0      0.00%     10.41% # attempts to use FU when none available
system.switch_cpus.iq.fu_full::SimdSha1Hash            0      0.00%     10.41% # attempts to use FU when none available
system.switch_cpus.iq.fu_full::SimdSha1Hash2            0      0.00%     10.41% # attempts to use FU when none available
system.switch_cpus.iq.fu_full::SimdSha256Hash            0      0.00%     10.41% # attempts to use FU when none available
system.switch_cpus.iq.fu_full::SimdSha256Hash2            0      0.00%     10.41% # attempts to use FU when none available
system.switch_cpus.iq.fu_full::SimdShaSigma2            0      0.00%     10.41% # attempts to use FU when none available
system.switch_cpus.iq.fu_full::SimdShaSigma3            0      0.00%     10.41% # attempts to use FU when none available
system.switch_cpus.iq.fu_full::SimdPredAlu            0      0.00%     10.41% # attempts to use FU when none available
system.switch_cpus.iq.fu_full::MemRead       27809285     44.63%     55.04% # attempts to use FU when none available
system.switch_cpus.iq.fu_full::MemWrite      28017125     44.96%    100.00% # attempts to use FU when none available
system.switch_cpus.iq.fu_full::FloatMemRead            0      0.00%    100.00% # attempts to use FU when none available
system.switch_cpus.iq.fu_full::FloatMemWrite            0      0.00%    100.00% # attempts to use FU when none available
system.switch_cpus.iq.fu_full::IprAccess            0      0.00%    100.00% # attempts to use FU when none available
system.switch_cpus.iq.fu_full::InstPrefetch            0      0.00%    100.00% # attempts to use FU when none available
system.switch_cpus.iq.int_alu_accesses     2489164535                       # Number of integer alu accesses
system.switch_cpus.iq.int_inst_queue_reads   5895886577                       # Number of integer instruction queue reads
system.switch_cpus.iq.int_inst_queue_wakeup_accesses   2394640475                       # Number of integer instruction queue wakeup accesses
system.switch_cpus.iq.int_inst_queue_writes   2712667467                       # Number of integer instruction queue writes
system.switch_cpus.iq.iqInstsAdded         2488881493                       # Number of instructions added to the IQ (excludes non-spec)
system.switch_cpus.iq.iqInstsIssued        2431717959                       # Number of instructions issued
system.switch_cpus.iq.iqNonSpecInstsAdded        23092                       # Number of non-speculative instructions added to the IQ
system.switch_cpus.iq.iqSquashedInstsExamined    229407124                       # Number of squashed instructions iterated over during squash; mainly for profiling
system.switch_cpus.iq.iqSquashedInstsIssued      1338277                       # Number of squashed instructions issued
system.switch_cpus.iq.iqSquashedNonSpecRemoved        11905                       # Number of squashed non-spec instructions that were removed
system.switch_cpus.iq.iqSquashedOperandsExamined    150311340                       # Number of squashed operands that are examined and possibly removed from graph
system.switch_cpus.iq.issued_per_cycle::samples    978320247                       # Number of insts issued each cycle
system.switch_cpus.iq.issued_per_cycle::mean     2.485605                       # Number of insts issued each cycle
system.switch_cpus.iq.issued_per_cycle::stdev     2.226239                       # Number of insts issued each cycle
system.switch_cpus.iq.issued_per_cycle::underflows            0      0.00%      0.00% # Number of insts issued each cycle
system.switch_cpus.iq.issued_per_cycle::0    246113014     25.16%     25.16% # Number of insts issued each cycle
system.switch_cpus.iq.issued_per_cycle::1    146915500     15.02%     40.17% # Number of insts issued each cycle
system.switch_cpus.iq.issued_per_cycle::2    158974161     16.25%     56.42% # Number of insts issued each cycle
system.switch_cpus.iq.issued_per_cycle::3    132562515     13.55%     69.97% # Number of insts issued each cycle
system.switch_cpus.iq.issued_per_cycle::4    113334711     11.58%     81.56% # Number of insts issued each cycle
system.switch_cpus.iq.issued_per_cycle::5     64132188      6.56%     88.11% # Number of insts issued each cycle
system.switch_cpus.iq.issued_per_cycle::6     42541022      4.35%     92.46% # Number of insts issued each cycle
system.switch_cpus.iq.issued_per_cycle::7     50056412      5.12%     97.58% # Number of insts issued each cycle
system.switch_cpus.iq.issued_per_cycle::8     23690724      2.42%    100.00% # Number of insts issued each cycle
system.switch_cpus.iq.issued_per_cycle::overflows            0      0.00%    100.00% # Number of insts issued each cycle
system.switch_cpus.iq.issued_per_cycle::min_value            0                       # Number of insts issued each cycle
system.switch_cpus.iq.issued_per_cycle::max_value            8                       # Number of insts issued each cycle
system.switch_cpus.iq.issued_per_cycle::total    978320247                       # Number of insts issued each cycle
system.switch_cpus.iq.rate                   2.446355                       # Inst issue rate
system.switch_cpus.iq.vec_alu_accesses        4849212                       # Number of vector alu accesses
system.switch_cpus.iq.vec_inst_queue_reads      9523140                       # Number of vector instruction queue reads
system.switch_cpus.iq.vec_inst_queue_wakeup_accesses      4358307                       # Number of vector instruction queue wakeup accesses
system.switch_cpus.iq.vec_inst_queue_writes      5864492                       # Number of vector instruction queue writes
system.switch_cpus.memDep0.conflictingLoads     15371085                       # Number of conflicting loads.
system.switch_cpus.memDep0.conflictingStores     15358421                       # Number of conflicting stores.
system.switch_cpus.memDep0.insertedLoads    620212150                       # Number of loads inserted to the mem dependence unit.
system.switch_cpus.memDep0.insertedStores    400330449                       # Number of stores inserted to the mem dependence unit.
system.switch_cpus.misc_regfile_reads      6341184103                       # number of misc regfile reads
system.switch_cpus.misc_regfile_writes          30516                       # number of misc regfile writes
system.switch_cpus.numCycles                994016784                       # number of cpu cycles simulated
system.switch_cpus.numWorkItemsCompleted            0                       # number of work items this cpu completed
system.switch_cpus.numWorkItemsStarted              0                       # number of work items this cpu started
system.switch_cpus.pred_regfile_reads          928349                       # number of predicate regfile reads
system.switch_cpus.pred_regfile_writes         330963                       # number of predicate regfile writes
system.switch_cpus.timesIdled                 3467752                       # Number of times that the entire CPU went into an idle state and unscheduled itself
system.switch_cpus.vec_regfile_reads          3315674                       # number of vector regfile reads
system.switch_cpus.vec_regfile_writes         1808202                       # number of vector regfile writes
system.tol2bus.snoop_filter.hit_multi_requests        65764                       # Number of requests hitting in the snoop filter with multiple (>1) holders of the requested data.
system.tol2bus.snoop_filter.hit_multi_snoops            0                       # Number of snoops hitting in the snoop filter with multiple (>1) holders of the requested data.
system.tol2bus.snoop_filter.hit_single_requests     11528128                       # Number of requests hitting in the snoop filter with a single holder of the requested data.
system.tol2bus.snoop_filter.hit_single_snoops          581                       # Number of snoops hitting in the snoop filter with a single holder of the requested data.
system.tol2bus.snoop_filter.tot_requests     23058374                       # Total number of requests made to the snoop filter.
system.tol2bus.snoop_filter.tot_snoops            581                       # Total number of snoops made to the snoop filter.
system.clk_domain.clock                          1000                       # Clock period in ticks
system.cpu.dcache.demand_hits::.cpu.data            2                       # number of demand (read+write) hits
system.cpu.dcache.demand_hits::.switch_cpus.data    935558094                       # number of demand (read+write) hits
system.cpu.dcache.demand_hits::total        935558096                       # number of demand (read+write) hits
system.cpu.dcache.overall_hits::.cpu.data            2                       # number of overall hits
system.cpu.dcache.overall_hits::.switch_cpus.data    935558094                       # number of overall hits
system.cpu.dcache.overall_hits::total       935558096                       # number of overall hits
system.cpu.dcache.demand_misses::.cpu.data            4                       # number of demand (read+write) misses
system.cpu.dcache.demand_misses::.switch_cpus.data     10371998                       # number of demand (read+write) misses
system.cpu.dcache.demand_misses::total       10372002                       # number of demand (read+write) misses
system.cpu.dcache.overall_misses::.cpu.data            4                       # number of overall misses
system.cpu.dcache.overall_misses::.switch_cpus.data     10371998                       # number of overall misses
system.cpu.dcache.overall_misses::total      10372002                       # number of overall misses
system.cpu.dcache.demand_miss_latency::.switch_cpus.data 142633560374                       # number of demand (read+write) miss cycles
system.cpu.dcache.demand_miss_latency::total 142633560374                       # number of demand (read+write) miss cycles
system.cpu.dcache.overall_miss_latency::.switch_cpus.data 142633560374                       # number of overall miss cycles
system.cpu.dcache.overall_miss_latency::total 142633560374                       # number of overall miss cycles
system.cpu.dcache.demand_accesses::.cpu.data            6                       # number of demand (read+write) accesses
system.cpu.dcache.demand_accesses::.switch_cpus.data    945930092                       # number of demand (read+write) accesses
system.cpu.dcache.demand_accesses::total    945930098                       # number of demand (read+write) accesses
system.cpu.dcache.overall_accesses::.cpu.data            6                       # number of overall (read+write) accesses
system.cpu.dcache.overall_accesses::.switch_cpus.data    945930092                       # number of overall (read+write) accesses
system.cpu.dcache.overall_accesses::total    945930098                       # number of overall (read+write) accesses
system.cpu.dcache.demand_miss_rate::.cpu.data     0.666667                       # miss rate for demand accesses
system.cpu.dcache.demand_miss_rate::.switch_cpus.data     0.010965                       # miss rate for demand accesses
system.cpu.dcache.demand_miss_rate::total     0.010965                       # miss rate for demand accesses
system.cpu.dcache.overall_miss_rate::.cpu.data     0.666667                       # miss rate for overall accesses
system.cpu.dcache.overall_miss_rate::.switch_cpus.data     0.010965                       # miss rate for overall accesses
system.cpu.dcache.overall_miss_rate::total     0.010965                       # miss rate for overall accesses
system.cpu.dcache.demand_avg_miss_latency::.switch_cpus.data 13751.792121                       # average overall miss latency
system.cpu.dcache.demand_avg_miss_latency::total 13751.786817                       # average overall miss latency
system.cpu.dcache.overall_avg_miss_latency::.switch_cpus.data 13751.792121                       # average overall miss latency
system.cpu.dcache.overall_avg_miss_latency::total 13751.786817                       # average overall miss latency
system.cpu.dcache.blocked_cycles::no_mshrs       995635                       # number of cycles access was blocked
system.cpu.dcache.blocked_cycles::no_targets        46154                       # number of cycles access was blocked
system.cpu.dcache.blocked::no_mshrs            122792                       # number of cycles access was blocked
system.cpu.dcache.blocked::no_targets           15205                       # number of cycles access was blocked
system.cpu.dcache.avg_blocked_cycles::no_mshrs     8.108305                       # average number of cycles each access was blocked
system.cpu.dcache.avg_blocked_cycles::no_targets     3.035449                       # average number of cycles each access was blocked
system.cpu.dcache.ghost_timestamp_misses            0                       # number of times timestamp policy causes a block to be inaccessible
system.cpu.dcache.ghost_commits                     0                       # number of cache lines moved from ghost to main
system.cpu.dcache.same_leapfrogs                    0                       # number of times leapfrogging occurs with a shared MSHR request
system.cpu.dcache.writebacks::.writebacks      4914026                       # number of writebacks
system.cpu.dcache.writebacks::total           4914026                       # number of writebacks
system.cpu.dcache.demand_mshr_hits::.switch_cpus.data      5456921                       # number of demand (read+write) MSHR hits
system.cpu.dcache.demand_mshr_hits::total      5456921                       # number of demand (read+write) MSHR hits
system.cpu.dcache.overall_mshr_hits::.switch_cpus.data      5456921                       # number of overall MSHR hits
system.cpu.dcache.overall_mshr_hits::total      5456921                       # number of overall MSHR hits
system.cpu.dcache.demand_mshr_misses::.switch_cpus.data      4915077                       # number of demand (read+write) MSHR misses
system.cpu.dcache.demand_mshr_misses::total      4915077                       # number of demand (read+write) MSHR misses
system.cpu.dcache.overall_mshr_misses::.switch_cpus.data      4915077                       # number of overall MSHR misses
system.cpu.dcache.overall_mshr_misses::total      4915077                       # number of overall MSHR misses
system.cpu.dcache.demand_mshr_miss_latency::.switch_cpus.data  67992596502                       # number of demand (read+write) MSHR miss cycles
system.cpu.dcache.demand_mshr_miss_latency::total  67992596502                       # number of demand (read+write) MSHR miss cycles
system.cpu.dcache.overall_mshr_miss_latency::.switch_cpus.data  67992596502                       # number of overall MSHR miss cycles
system.cpu.dcache.overall_mshr_miss_latency::total  67992596502                       # number of overall MSHR miss cycles
system.cpu.dcache.demand_mshr_miss_rate::.switch_cpus.data     0.005196                       # mshr miss rate for demand accesses
system.cpu.dcache.demand_mshr_miss_rate::total     0.005196                       # mshr miss rate for demand accesses
system.cpu.dcache.overall_mshr_miss_rate::.switch_cpus.data     0.005196                       # mshr miss rate for overall accesses
system.cpu.dcache.overall_mshr_miss_rate::total     0.005196                       # mshr miss rate for overall accesses
system.cpu.dcache.demand_avg_mshr_miss_latency::.switch_cpus.data 13833.475346                       # average overall mshr miss latency
system.cpu.dcache.demand_avg_mshr_miss_latency::total 13833.475346                       # average overall mshr miss latency
system.cpu.dcache.overall_avg_mshr_miss_latency::.switch_cpus.data 13833.475346                       # average overall mshr miss latency
system.cpu.dcache.overall_avg_mshr_miss_latency::total 13833.475346                       # average overall mshr miss latency
system.cpu.dcache.replacements                4914026                       # number of replacements
system.cpu.dcache.ReadReq_hits::.cpu.data            2                       # number of ReadReq hits
system.cpu.dcache.ReadReq_hits::.switch_cpus.data    573745433                       # number of ReadReq hits
system.cpu.dcache.ReadReq_hits::total       573745435                       # number of ReadReq hits
system.cpu.dcache.ReadReq_misses::.cpu.data            4                       # number of ReadReq misses
system.cpu.dcache.ReadReq_misses::.switch_cpus.data      8940573                       # number of ReadReq misses
system.cpu.dcache.ReadReq_misses::total       8940577                       # number of ReadReq misses
system.cpu.dcache.ReadReq_miss_latency::.switch_cpus.data 122491019500                       # number of ReadReq miss cycles
system.cpu.dcache.ReadReq_miss_latency::total 122491019500                       # number of ReadReq miss cycles
system.cpu.dcache.ReadReq_accesses::.cpu.data            6                       # number of ReadReq accesses(hits+misses)
system.cpu.dcache.ReadReq_accesses::.switch_cpus.data    582686006                       # number of ReadReq accesses(hits+misses)
system.cpu.dcache.ReadReq_accesses::total    582686012                       # number of ReadReq accesses(hits+misses)
system.cpu.dcache.ReadReq_miss_rate::.cpu.data     0.666667                       # miss rate for ReadReq accesses
system.cpu.dcache.ReadReq_miss_rate::.switch_cpus.data     0.015344                       # miss rate for ReadReq accesses
system.cpu.dcache.ReadReq_miss_rate::total     0.015344                       # miss rate for ReadReq accesses
system.cpu.dcache.ReadReq_avg_miss_latency::.switch_cpus.data 13700.578196                       # average ReadReq miss latency
system.cpu.dcache.ReadReq_avg_miss_latency::total 13700.572066                       # average ReadReq miss latency
system.cpu.dcache.ReadReq_mshr_hits::.switch_cpus.data      4432315                       # number of ReadReq MSHR hits
system.cpu.dcache.ReadReq_mshr_hits::total      4432315                       # number of ReadReq MSHR hits
system.cpu.dcache.ReadReq_mshr_misses::.switch_cpus.data      4508258                       # number of ReadReq MSHR misses
system.cpu.dcache.ReadReq_mshr_misses::total      4508258                       # number of ReadReq MSHR misses
system.cpu.dcache.ReadReq_mshr_miss_latency::.switch_cpus.data  62446308000                       # number of ReadReq MSHR miss cycles
system.cpu.dcache.ReadReq_mshr_miss_latency::total  62446308000                       # number of ReadReq MSHR miss cycles
system.cpu.dcache.ReadReq_mshr_miss_rate::.switch_cpus.data     0.007737                       # mshr miss rate for ReadReq accesses
system.cpu.dcache.ReadReq_mshr_miss_rate::total     0.007737                       # mshr miss rate for ReadReq accesses
system.cpu.dcache.ReadReq_avg_mshr_miss_latency::.switch_cpus.data 13851.538222                       # average ReadReq mshr miss latency
system.cpu.dcache.ReadReq_avg_mshr_miss_latency::total 13851.538222                       # average ReadReq mshr miss latency
system.cpu.dcache.WriteReq_hits::.switch_cpus.data    361812647                       # number of WriteReq hits
system.cpu.dcache.WriteReq_hits::total      361812647                       # number of WriteReq hits
system.cpu.dcache.WriteReq_misses::.switch_cpus.data      1430666                       # number of WriteReq misses
system.cpu.dcache.WriteReq_misses::total      1430666                       # number of WriteReq misses
system.cpu.dcache.WriteReq_miss_latency::.switch_cpus.data  20130678098                       # number of WriteReq miss cycles
system.cpu.dcache.WriteReq_miss_latency::total  20130678098                       # number of WriteReq miss cycles
system.cpu.dcache.WriteReq_accesses::.switch_cpus.data    363243313                       # number of WriteReq accesses(hits+misses)
system.cpu.dcache.WriteReq_accesses::total    363243313                       # number of WriteReq accesses(hits+misses)
system.cpu.dcache.WriteReq_miss_rate::.switch_cpus.data     0.003939                       # miss rate for WriteReq accesses
system.cpu.dcache.WriteReq_miss_rate::total     0.003939                       # miss rate for WriteReq accesses
system.cpu.dcache.WriteReq_avg_miss_latency::.switch_cpus.data 14070.843997                       # average WriteReq miss latency
system.cpu.dcache.WriteReq_avg_miss_latency::total 14070.843997                       # average WriteReq miss latency
system.cpu.dcache.WriteReq_mshr_hits::.switch_cpus.data      1024606                       # number of WriteReq MSHR hits
system.cpu.dcache.WriteReq_mshr_hits::total      1024606                       # number of WriteReq MSHR hits
system.cpu.dcache.WriteReq_mshr_misses::.switch_cpus.data       406060                       # number of WriteReq MSHR misses
system.cpu.dcache.WriteReq_mshr_misses::total       406060                       # number of WriteReq MSHR misses
system.cpu.dcache.WriteReq_mshr_miss_latency::.switch_cpus.data   5535184726                       # number of WriteReq MSHR miss cycles
system.cpu.dcache.WriteReq_mshr_miss_latency::total   5535184726                       # number of WriteReq MSHR miss cycles
system.cpu.dcache.WriteReq_mshr_miss_rate::.switch_cpus.data     0.001118                       # mshr miss rate for WriteReq accesses
system.cpu.dcache.WriteReq_mshr_miss_rate::total     0.001118                       # mshr miss rate for WriteReq accesses
system.cpu.dcache.WriteReq_avg_mshr_miss_latency::.switch_cpus.data 13631.445417                       # average WriteReq mshr miss latency
system.cpu.dcache.WriteReq_avg_mshr_miss_latency::total 13631.445417                       # average WriteReq mshr miss latency
system.cpu.dcache.WriteLineReq_hits::.switch_cpus.data           14                       # number of WriteLineReq hits
system.cpu.dcache.WriteLineReq_hits::total           14                       # number of WriteLineReq hits
system.cpu.dcache.WriteLineReq_misses::.switch_cpus.data          759                       # number of WriteLineReq misses
system.cpu.dcache.WriteLineReq_misses::total          759                       # number of WriteLineReq misses
system.cpu.dcache.WriteLineReq_miss_latency::.switch_cpus.data     11862776                       # number of WriteLineReq miss cycles
system.cpu.dcache.WriteLineReq_miss_latency::total     11862776                       # number of WriteLineReq miss cycles
system.cpu.dcache.WriteLineReq_accesses::.switch_cpus.data          773                       # number of WriteLineReq accesses(hits+misses)
system.cpu.dcache.WriteLineReq_accesses::total          773                       # number of WriteLineReq accesses(hits+misses)
system.cpu.dcache.WriteLineReq_miss_rate::.switch_cpus.data     0.981889                       # miss rate for WriteLineReq accesses
system.cpu.dcache.WriteLineReq_miss_rate::total     0.981889                       # miss rate for WriteLineReq accesses
system.cpu.dcache.WriteLineReq_avg_miss_latency::.switch_cpus.data 15629.480896                       # average WriteLineReq miss latency
system.cpu.dcache.WriteLineReq_avg_miss_latency::total 15629.480896                       # average WriteLineReq miss latency
system.cpu.dcache.WriteLineReq_mshr_misses::.switch_cpus.data          759                       # number of WriteLineReq MSHR misses
system.cpu.dcache.WriteLineReq_mshr_misses::total          759                       # number of WriteLineReq MSHR misses
system.cpu.dcache.WriteLineReq_mshr_miss_latency::.switch_cpus.data     11103776                       # number of WriteLineReq MSHR miss cycles
system.cpu.dcache.WriteLineReq_mshr_miss_latency::total     11103776                       # number of WriteLineReq MSHR miss cycles
system.cpu.dcache.WriteLineReq_mshr_miss_rate::.switch_cpus.data     0.981889                       # mshr miss rate for WriteLineReq accesses
system.cpu.dcache.WriteLineReq_mshr_miss_rate::total     0.981889                       # mshr miss rate for WriteLineReq accesses
system.cpu.dcache.WriteLineReq_avg_mshr_miss_latency::.switch_cpus.data 14629.480896                       # average WriteLineReq mshr miss latency
system.cpu.dcache.WriteLineReq_avg_mshr_miss_latency::total 14629.480896                       # average WriteLineReq mshr miss latency
system.cpu.dcache.SwapReq_hits::.switch_cpus.data         5488                       # number of SwapReq hits
system.cpu.dcache.SwapReq_hits::total            5488                       # number of SwapReq hits
system.cpu.dcache.SwapReq_misses::.switch_cpus.data           92                       # number of SwapReq misses
system.cpu.dcache.SwapReq_misses::total            92                       # number of SwapReq misses
system.cpu.dcache.SwapReq_miss_latency::.switch_cpus.data      1196000                       # number of SwapReq miss cycles
system.cpu.dcache.SwapReq_miss_latency::total      1196000                       # number of SwapReq miss cycles
system.cpu.dcache.SwapReq_accesses::.switch_cpus.data         5580                       # number of SwapReq accesses(hits+misses)
system.cpu.dcache.SwapReq_accesses::total         5580                       # number of SwapReq accesses(hits+misses)
system.cpu.dcache.SwapReq_miss_rate::.switch_cpus.data     0.016487                       # miss rate for SwapReq accesses
system.cpu.dcache.SwapReq_miss_rate::total     0.016487                       # miss rate for SwapReq accesses
system.cpu.dcache.SwapReq_avg_miss_latency::.switch_cpus.data        13000                       # average SwapReq miss latency
system.cpu.dcache.SwapReq_avg_miss_latency::total        13000                       # average SwapReq miss latency
system.cpu.dcache.SwapReq_mshr_misses::.switch_cpus.data           92                       # number of SwapReq MSHR misses
system.cpu.dcache.SwapReq_mshr_misses::total           92                       # number of SwapReq MSHR misses
system.cpu.dcache.SwapReq_mshr_miss_latency::.switch_cpus.data      1104000                       # number of SwapReq MSHR miss cycles
system.cpu.dcache.SwapReq_mshr_miss_latency::total      1104000                       # number of SwapReq MSHR miss cycles
system.cpu.dcache.SwapReq_mshr_miss_rate::.switch_cpus.data     0.016487                       # mshr miss rate for SwapReq accesses
system.cpu.dcache.SwapReq_mshr_miss_rate::total     0.016487                       # mshr miss rate for SwapReq accesses
system.cpu.dcache.SwapReq_avg_mshr_miss_latency::.switch_cpus.data        12000                       # average SwapReq mshr miss latency
system.cpu.dcache.SwapReq_avg_mshr_miss_latency::total        12000                       # average SwapReq mshr miss latency
system.cpu.dcache.ghosttags.tagsinuse               0                       # Cycle average of tags in use
system.cpu.dcache.ghosttags.total_refs              0                       # Total number of references to valid blocks.
system.cpu.dcache.ghosttags.sampled_refs            0                       # Sample count of references to valid blocks.
system.cpu.dcache.ghosttags.avg_refs              nan                       # Average number of references to valid blocks.
system.cpu.dcache.ghosttags.warmup_cycle            0                       # Cycle when the warmup percentage was hit.
system.cpu.dcache.ghosttags.tag_accesses            0                       # Number of tag accesses
system.cpu.dcache.ghosttags.data_accesses            0                       # Number of data accesses
system.cpu.dcache.ghosttags.repl_invalid            0                       # Number of initial replacements
system.cpu.dcache.ghosttags.repl_valid_tag            0                       # Number of local replacements
system.cpu.dcache.ghosttags.repl_valid_data            0                       # Number of global replacements
system.cpu.dcache.ghosttags.power_state.pwrStateResidencyTicks::UNDEFINED 6238276238500                       # Cumulative time (in ticks) in various power states
system.cpu.dcache.power_state.pwrStateResidencyTicks::UNDEFINED 6238276238500                       # Cumulative time (in ticks) in various power states
system.cpu.dcache.tags.tagsinuse           511.742507                       # Cycle average of tags in use
system.cpu.dcache.tags.total_refs           940479179                       # Total number of references to valid blocks.
system.cpu.dcache.tags.sampled_refs           4914538                       # Sample count of references to valid blocks.
system.cpu.dcache.tags.avg_refs            191.366753                       # Average number of references to valid blocks.
system.cpu.dcache.tags.warmup_cycle      5741267844000                       # Cycle when the warmup percentage was hit.
system.cpu.dcache.tags.occ_blocks::.cpu.data     0.133017                       # Average occupied blocks per requestor
system.cpu.dcache.tags.occ_blocks::.switch_cpus.data   511.609490                       # Average occupied blocks per requestor
system.cpu.dcache.tags.occ_percent::.cpu.data     0.000260                       # Average percentage of cache occupancy
system.cpu.dcache.tags.occ_percent::.switch_cpus.data     0.999237                       # Average percentage of cache occupancy
system.cpu.dcache.tags.occ_percent::total     0.999497                       # Average percentage of cache occupancy
system.cpu.dcache.tags.occ_task_id_blocks::1024          512                       # Occupied blocks per task id
system.cpu.dcache.tags.age_task_id_blocks_1024::0            3                       # Occupied blocks per task id
system.cpu.dcache.tags.age_task_id_blocks_1024::1           98                       # Occupied blocks per task id
system.cpu.dcache.tags.age_task_id_blocks_1024::2          229                       # Occupied blocks per task id
system.cpu.dcache.tags.age_task_id_blocks_1024::3          132                       # Occupied blocks per task id
system.cpu.dcache.tags.age_task_id_blocks_1024::4           50                       # Occupied blocks per task id
system.cpu.dcache.tags.occ_task_id_percent::1024            1                       # Percentage of cache occupancy per task id
system.cpu.dcache.tags.tag_accesses        7572399962                       # Number of tag accesses
system.cpu.dcache.tags.data_accesses       7572399962                       # Number of data accesses
system.cpu.dcache.tags.repl_invalid                 0                       # Number of initial replacements
system.cpu.dcache.tags.repl_valid_tag               0                       # Number of local replacements
system.cpu.dcache.tags.repl_valid_data              0                       # Number of global replacements
system.cpu.dcache.tags.power_state.pwrStateResidencyTicks::UNDEFINED 6238276238500                       # Cumulative time (in ticks) in various power states
system.cpu.dtb.instHits                             0                       # ITB inst hits
system.cpu.dtb.instMisses                           0                       # ITB inst misses
system.cpu.dtb.readHits                             0                       # DTB read hits
system.cpu.dtb.readMisses                           0                       # DTB read misses
system.cpu.dtb.writeHits                            0                       # DTB write hits
system.cpu.dtb.writeMisses                          0                       # DTB write misses
system.cpu.dtb.inserts                              0                       # Number of times an entry is inserted into the TLB
system.cpu.dtb.flushTlb                             2                       # Number of times complete TLB was flushed
system.cpu.dtb.flushTlbMva                          0                       # Number of times TLB was flushed by MVA
system.cpu.dtb.flushTlbMvaAsid                      0                       # Number of times TLB was flushed by MVA & ASID
system.cpu.dtb.flushTlbAsid                         0                       # Number of times TLB was flushed by ASID
system.cpu.dtb.flushedEntries                       0                       # Number of entries that have been flushed from TLB
system.cpu.dtb.alignFaults                          0                       # Number of TLB faults due to alignment restrictions
system.cpu.dtb.prefetchFaults                       0                       # Number of TLB faults due to prefetch
system.cpu.dtb.domainFaults                         0                       # Number of TLB faults due to domain restrictions
system.cpu.dtb.permsFaults                          0                       # Number of TLB faults due to permissions restrictions
system.cpu.dtb.readAccesses                         0                       # DTB read accesses
system.cpu.dtb.writeAccesses                        0                       # DTB write accesses
system.cpu.dtb.instAccesses                         0                       # ITB inst accesses
system.cpu.dtb.hits                                 0                       # Total TLB (inst and data) hits
system.cpu.dtb.misses                               0                       # Total TLB (inst and data) misses
system.cpu.dtb.accesses                             0                       # Total TLB (inst and data) accesses
system.cpu.dtb.stage2_mmu.stage2_tlb.instHits            0                       # ITB inst hits
system.cpu.dtb.stage2_mmu.stage2_tlb.instMisses            0                       # ITB inst misses
system.cpu.dtb.stage2_mmu.stage2_tlb.readHits            0                       # DTB read hits
system.cpu.dtb.stage2_mmu.stage2_tlb.readMisses            0                       # DTB read misses
system.cpu.dtb.stage2_mmu.stage2_tlb.writeHits            0                       # DTB write hits
system.cpu.dtb.stage2_mmu.stage2_tlb.writeMisses            0                       # DTB write misses
system.cpu.dtb.stage2_mmu.stage2_tlb.inserts            0                       # Number of times an entry is inserted into the TLB
system.cpu.dtb.stage2_mmu.stage2_tlb.flushTlb            0                       # Number of times complete TLB was flushed
system.cpu.dtb.stage2_mmu.stage2_tlb.flushTlbMva            0                       # Number of times TLB was flushed by MVA
system.cpu.dtb.stage2_mmu.stage2_tlb.flushTlbMvaAsid            0                       # Number of times TLB was flushed by MVA & ASID
system.cpu.dtb.stage2_mmu.stage2_tlb.flushTlbAsid            0                       # Number of times TLB was flushed by ASID
system.cpu.dtb.stage2_mmu.stage2_tlb.flushedEntries            0                       # Number of entries that have been flushed from TLB
system.cpu.dtb.stage2_mmu.stage2_tlb.alignFaults            0                       # Number of TLB faults due to alignment restrictions
system.cpu.dtb.stage2_mmu.stage2_tlb.prefetchFaults            0                       # Number of TLB faults due to prefetch
system.cpu.dtb.stage2_mmu.stage2_tlb.domainFaults            0                       # Number of TLB faults due to domain restrictions
system.cpu.dtb.stage2_mmu.stage2_tlb.permsFaults            0                       # Number of TLB faults due to permissions restrictions
system.cpu.dtb.stage2_mmu.stage2_tlb.readAccesses            0                       # DTB read accesses
system.cpu.dtb.stage2_mmu.stage2_tlb.writeAccesses            0                       # DTB write accesses
system.cpu.dtb.stage2_mmu.stage2_tlb.instAccesses            0                       # ITB inst accesses
system.cpu.dtb.stage2_mmu.stage2_tlb.hits            0                       # Total TLB (inst and data) hits
system.cpu.dtb.stage2_mmu.stage2_tlb.misses            0                       # Total TLB (inst and data) misses
system.cpu.dtb.stage2_mmu.stage2_tlb.accesses            0                       # Total TLB (inst and data) accesses
system.cpu.dtb.stage2_mmu.stage2_tlb.walker.walks            0                       # Table walker walks requested
system.cpu.dtb.stage2_mmu.stage2_tlb.walker.requestOrigin_Requested::Data            0                       # Table walker requests started/completed, data/inst
system.cpu.dtb.stage2_mmu.stage2_tlb.walker.requestOrigin_Requested::Inst            0                       # Table walker requests started/completed, data/inst
system.cpu.dtb.stage2_mmu.stage2_tlb.walker.requestOrigin_Requested::total            0                       # Table walker requests started/completed, data/inst
system.cpu.dtb.stage2_mmu.stage2_tlb.walker.requestOrigin_Completed::Data            0                       # Table walker requests started/completed, data/inst
system.cpu.dtb.stage2_mmu.stage2_tlb.walker.requestOrigin_Completed::Inst            0                       # Table walker requests started/completed, data/inst
system.cpu.dtb.stage2_mmu.stage2_tlb.walker.requestOrigin_Completed::total            0                       # Table walker requests started/completed, data/inst
system.cpu.dtb.stage2_mmu.stage2_tlb.walker.requestOrigin::total            0                       # Table walker requests started/completed, data/inst
system.cpu.dtb.stage2_mmu.stage2_tlb.walker.power_state.pwrStateResidencyTicks::UNDEFINED 6238276238500                       # Cumulative time (in ticks) in various power states
system.cpu.dtb.walker.walks                         0                       # Table walker walks requested
system.cpu.dtb.walker.requestOrigin_Requested::Data            0                       # Table walker requests started/completed, data/inst
system.cpu.dtb.walker.requestOrigin_Requested::Inst            0                       # Table walker requests started/completed, data/inst
system.cpu.dtb.walker.requestOrigin_Requested::total            0                       # Table walker requests started/completed, data/inst
system.cpu.dtb.walker.requestOrigin_Completed::Data            0                       # Table walker requests started/completed, data/inst
system.cpu.dtb.walker.requestOrigin_Completed::Inst            0                       # Table walker requests started/completed, data/inst
system.cpu.dtb.walker.requestOrigin_Completed::total            0                       # Table walker requests started/completed, data/inst
system.cpu.dtb.walker.requestOrigin::total            0                       # Table walker requests started/completed, data/inst
system.cpu.dtb.walker.power_state.pwrStateResidencyTicks::UNDEFINED 6238276238500                       # Cumulative time (in ticks) in various power states
system.cpu.icache.demand_hits::.cpu.inst           14                       # number of demand (read+write) hits
system.cpu.icache.demand_hits::.switch_cpus.inst    311944032                       # number of demand (read+write) hits
system.cpu.icache.demand_hits::total        311944046                       # number of demand (read+write) hits
system.cpu.icache.overall_hits::.cpu.inst           14                       # number of overall hits
system.cpu.icache.overall_hits::.switch_cpus.inst    311944032                       # number of overall hits
system.cpu.icache.overall_hits::total       311944046                       # number of overall hits
system.cpu.icache.demand_misses::.cpu.inst            6                       # number of demand (read+write) misses
system.cpu.icache.demand_misses::.switch_cpus.inst      6948696                       # number of demand (read+write) misses
system.cpu.icache.demand_misses::total        6948702                       # number of demand (read+write) misses
system.cpu.icache.overall_misses::.cpu.inst            6                       # number of overall misses
system.cpu.icache.overall_misses::.switch_cpus.inst      6948696                       # number of overall misses
system.cpu.icache.overall_misses::total       6948702                       # number of overall misses
system.cpu.icache.demand_miss_latency::.switch_cpus.inst  90016870463                       # number of demand (read+write) miss cycles
system.cpu.icache.demand_miss_latency::total  90016870463                       # number of demand (read+write) miss cycles
system.cpu.icache.overall_miss_latency::.switch_cpus.inst  90016870463                       # number of overall miss cycles
system.cpu.icache.overall_miss_latency::total  90016870463                       # number of overall miss cycles
system.cpu.icache.demand_accesses::.cpu.inst           20                       # number of demand (read+write) accesses
system.cpu.icache.demand_accesses::.switch_cpus.inst    318892728                       # number of demand (read+write) accesses
system.cpu.icache.demand_accesses::total    318892748                       # number of demand (read+write) accesses
system.cpu.icache.overall_accesses::.cpu.inst           20                       # number of overall (read+write) accesses
system.cpu.icache.overall_accesses::.switch_cpus.inst    318892728                       # number of overall (read+write) accesses
system.cpu.icache.overall_accesses::total    318892748                       # number of overall (read+write) accesses
system.cpu.icache.demand_miss_rate::.cpu.inst     0.300000                       # miss rate for demand accesses
system.cpu.icache.demand_miss_rate::.switch_cpus.inst     0.021790                       # miss rate for demand accesses
system.cpu.icache.demand_miss_rate::total     0.021790                       # miss rate for demand accesses
system.cpu.icache.overall_miss_rate::.cpu.inst     0.300000                       # miss rate for overall accesses
system.cpu.icache.overall_miss_rate::.switch_cpus.inst     0.021790                       # miss rate for overall accesses
system.cpu.icache.overall_miss_rate::total     0.021790                       # miss rate for overall accesses
system.cpu.icache.demand_avg_miss_latency::.switch_cpus.inst 12954.498292                       # average overall miss latency
system.cpu.icache.demand_avg_miss_latency::total 12954.487106                       # average overall miss latency
system.cpu.icache.overall_avg_miss_latency::.switch_cpus.inst 12954.498292                       # average overall miss latency
system.cpu.icache.overall_avg_miss_latency::total 12954.487106                       # average overall miss latency
system.cpu.icache.blocked_cycles::no_mshrs        13533                       # number of cycles access was blocked
system.cpu.icache.blocked_cycles::no_targets            0                       # number of cycles access was blocked
system.cpu.icache.blocked::no_mshrs              1579                       # number of cycles access was blocked
system.cpu.icache.blocked::no_targets               0                       # number of cycles access was blocked
system.cpu.icache.avg_blocked_cycles::no_mshrs     8.570614                       # average number of cycles each access was blocked
system.cpu.icache.avg_blocked_cycles::no_targets          nan                       # average number of cycles each access was blocked
system.cpu.icache.ghost_timestamp_misses            0                       # number of times timestamp policy causes a block to be inaccessible
system.cpu.icache.ghost_commits                     0                       # number of cache lines moved from ghost to main
system.cpu.icache.same_leapfrogs                    0                       # number of times leapfrogging occurs with a shared MSHR request
system.cpu.icache.writebacks::.writebacks      6614025                       # number of writebacks
system.cpu.icache.writebacks::total           6614025                       # number of writebacks
system.cpu.icache.demand_mshr_hits::.switch_cpus.inst       333552                       # number of demand (read+write) MSHR hits
system.cpu.icache.demand_mshr_hits::total       333552                       # number of demand (read+write) MSHR hits
system.cpu.icache.overall_mshr_hits::.switch_cpus.inst       333552                       # number of overall MSHR hits
system.cpu.icache.overall_mshr_hits::total       333552                       # number of overall MSHR hits
system.cpu.icache.demand_mshr_misses::.switch_cpus.inst      6615144                       # number of demand (read+write) MSHR misses
system.cpu.icache.demand_mshr_misses::total      6615144                       # number of demand (read+write) MSHR misses
system.cpu.icache.overall_mshr_misses::.switch_cpus.inst      6615144                       # number of overall MSHR misses
system.cpu.icache.overall_mshr_misses::total      6615144                       # number of overall MSHR misses
system.cpu.icache.demand_mshr_miss_latency::.switch_cpus.inst  81047476967                       # number of demand (read+write) MSHR miss cycles
system.cpu.icache.demand_mshr_miss_latency::total  81047476967                       # number of demand (read+write) MSHR miss cycles
system.cpu.icache.overall_mshr_miss_latency::.switch_cpus.inst  81047476967                       # number of overall MSHR miss cycles
system.cpu.icache.overall_mshr_miss_latency::total  81047476967                       # number of overall MSHR miss cycles
system.cpu.icache.demand_mshr_miss_rate::.switch_cpus.inst     0.020744                       # mshr miss rate for demand accesses
system.cpu.icache.demand_mshr_miss_rate::total     0.020744                       # mshr miss rate for demand accesses
system.cpu.icache.overall_mshr_miss_rate::.switch_cpus.inst     0.020744                       # mshr miss rate for overall accesses
system.cpu.icache.overall_mshr_miss_rate::total     0.020744                       # mshr miss rate for overall accesses
system.cpu.icache.demand_avg_mshr_miss_latency::.switch_cpus.inst 12251.808421                       # average overall mshr miss latency
system.cpu.icache.demand_avg_mshr_miss_latency::total 12251.808421                       # average overall mshr miss latency
system.cpu.icache.overall_avg_mshr_miss_latency::.switch_cpus.inst 12251.808421                       # average overall mshr miss latency
system.cpu.icache.overall_avg_mshr_miss_latency::total 12251.808421                       # average overall mshr miss latency
system.cpu.icache.replacements                6614025                       # number of replacements
system.cpu.icache.ReadReq_hits::.cpu.inst           14                       # number of ReadReq hits
system.cpu.icache.ReadReq_hits::.switch_cpus.inst    311944032                       # number of ReadReq hits
system.cpu.icache.ReadReq_hits::total       311944046                       # number of ReadReq hits
system.cpu.icache.ReadReq_misses::.cpu.inst            6                       # number of ReadReq misses
system.cpu.icache.ReadReq_misses::.switch_cpus.inst      6948696                       # number of ReadReq misses
system.cpu.icache.ReadReq_misses::total       6948702                       # number of ReadReq misses
system.cpu.icache.ReadReq_miss_latency::.switch_cpus.inst  90016870463                       # number of ReadReq miss cycles
system.cpu.icache.ReadReq_miss_latency::total  90016870463                       # number of ReadReq miss cycles
system.cpu.icache.ReadReq_accesses::.cpu.inst           20                       # number of ReadReq accesses(hits+misses)
system.cpu.icache.ReadReq_accesses::.switch_cpus.inst    318892728                       # number of ReadReq accesses(hits+misses)
system.cpu.icache.ReadReq_accesses::total    318892748                       # number of ReadReq accesses(hits+misses)
system.cpu.icache.ReadReq_miss_rate::.cpu.inst     0.300000                       # miss rate for ReadReq accesses
system.cpu.icache.ReadReq_miss_rate::.switch_cpus.inst     0.021790                       # miss rate for ReadReq accesses
system.cpu.icache.ReadReq_miss_rate::total     0.021790                       # miss rate for ReadReq accesses
system.cpu.icache.ReadReq_avg_miss_latency::.switch_cpus.inst 12954.498292                       # average ReadReq miss latency
system.cpu.icache.ReadReq_avg_miss_latency::total 12954.487106                       # average ReadReq miss latency
system.cpu.icache.ReadReq_mshr_hits::.switch_cpus.inst       333552                       # number of ReadReq MSHR hits
system.cpu.icache.ReadReq_mshr_hits::total       333552                       # number of ReadReq MSHR hits
system.cpu.icache.ReadReq_mshr_misses::.switch_cpus.inst      6615144                       # number of ReadReq MSHR misses
system.cpu.icache.ReadReq_mshr_misses::total      6615144                       # number of ReadReq MSHR misses
system.cpu.icache.ReadReq_mshr_miss_latency::.switch_cpus.inst  81047476967                       # number of ReadReq MSHR miss cycles
system.cpu.icache.ReadReq_mshr_miss_latency::total  81047476967                       # number of ReadReq MSHR miss cycles
system.cpu.icache.ReadReq_mshr_miss_rate::.switch_cpus.inst     0.020744                       # mshr miss rate for ReadReq accesses
system.cpu.icache.ReadReq_mshr_miss_rate::total     0.020744                       # mshr miss rate for ReadReq accesses
system.cpu.icache.ReadReq_avg_mshr_miss_latency::.switch_cpus.inst 12251.808421                       # average ReadReq mshr miss latency
system.cpu.icache.ReadReq_avg_mshr_miss_latency::total 12251.808421                       # average ReadReq mshr miss latency
system.cpu.icache.ghosttags.tagsinuse               0                       # Cycle average of tags in use
system.cpu.icache.ghosttags.total_refs              0                       # Total number of references to valid blocks.
system.cpu.icache.ghosttags.sampled_refs            0                       # Sample count of references to valid blocks.
system.cpu.icache.ghosttags.avg_refs              nan                       # Average number of references to valid blocks.
system.cpu.icache.ghosttags.warmup_cycle            0                       # Cycle when the warmup percentage was hit.
system.cpu.icache.ghosttags.tag_accesses            0                       # Number of tag accesses
system.cpu.icache.ghosttags.data_accesses            0                       # Number of data accesses
system.cpu.icache.ghosttags.repl_invalid            0                       # Number of initial replacements
system.cpu.icache.ghosttags.repl_valid_tag            0                       # Number of local replacements
system.cpu.icache.ghosttags.repl_valid_data            0                       # Number of global replacements
system.cpu.icache.ghosttags.power_state.pwrStateResidencyTicks::UNDEFINED 6238276238500                       # Cumulative time (in ticks) in various power states
system.cpu.icache.power_state.pwrStateResidencyTicks::UNDEFINED 6238276238500                       # Cumulative time (in ticks) in various power states
system.cpu.icache.tags.tagsinuse           511.591503                       # Cycle average of tags in use
system.cpu.icache.tags.total_refs           318559196                       # Total number of references to valid blocks.
system.cpu.icache.tags.sampled_refs           6615150                       # Sample count of references to valid blocks.
system.cpu.icache.tags.avg_refs             48.156005                       # Average number of references to valid blocks.
system.cpu.icache.tags.warmup_cycle      5741267843500                       # Cycle when the warmup percentage was hit.
system.cpu.icache.tags.occ_blocks::.cpu.inst     0.385990                       # Average occupied blocks per requestor
system.cpu.icache.tags.occ_blocks::.switch_cpus.inst   511.205513                       # Average occupied blocks per requestor
system.cpu.icache.tags.occ_percent::.cpu.inst     0.000754                       # Average percentage of cache occupancy
system.cpu.icache.tags.occ_percent::.switch_cpus.inst     0.998448                       # Average percentage of cache occupancy
system.cpu.icache.tags.occ_percent::total     0.999202                       # Average percentage of cache occupancy
system.cpu.icache.tags.occ_task_id_blocks::1024          512                       # Occupied blocks per task id
system.cpu.icache.tags.age_task_id_blocks_1024::1           35                       # Occupied blocks per task id
system.cpu.icache.tags.age_task_id_blocks_1024::2          115                       # Occupied blocks per task id
[...]
system.switch_cpus.fetch.cycles             528252725                       # Number of cycles fetch has run and was not squashing or blocked
system.switch_cpus.fetch.squashCycles        16072082                       # Number of cycles fetch has spent squashing
system.switch_cpus.fetch.miscStallCycles         3587                       # Number of cycles fetch has spent waiting on interrupts,or bad addresses, or out of MSHRs
system.switch_cpus.fetch.pendingTrapStallCycles        18073                       # Number of stall cycles due to pending traps
system.switch_cpus.fetch.icacheWaitRetryStallCycles          798                       # Number of stall cycles due to full MSHR
system.switch_cpus.fetch.cacheLines         318892738                       # Number of cache lines fetched
system.switch_cpus.fetch.icacheSquashes       4042003                       # Number of outstanding Icache misses that were squashed
system.switch_cpus.fetch.nisnDist::samples    978320247                       # Number of instructions fetched each cycle (Total)
system.switch_cpus.fetch.nisnDist::mean      2.660004                       # Number of instructions fetched each cycle (Total)
system.switch_cpus.fetch.nisnDist::stdev     3.217558                       # Number of instructions fetched each cycle (Total)
system.switch_cpus.fetch.nisnDist::underflows            0      0.00%      0.00% # Number of instructions fetched each cycle (Total)
system.switch_cpus.fetch.nisnDist::0        477920733     48.85%     48.85% # Number of instructions fetched each cycle (Total)
system.switch_cpus.fetch.nisnDist::1         43993515      4.50%     53.35% # Number of instructions fetched each cycle (Total)
system.switch_cpus.fetch.nisnDist::2         80527880      8.23%     61.58% # Number of instructions fetched each cycle (Total)
system.switch_cpus.fetch.nisnDist::3         46027465      4.70%     66.28% # Number of instructions fetched each cycle (Total)
system.switch_cpus.fetch.nisnDist::4         48784489      4.99%     71.27% # Number of instructions fetched each cycle (Total)
system.switch_cpus.fetch.nisnDist::5         36715474      3.75%     75.02% # Number of instructions fetched each cycle (Total)
system.switch_cpus.fetch.nisnDist::6         23986891      2.45%     77.48% # Number of instructions fetched each cycle (Total)
system.switch_cpus.fetch.nisnDist::7         26342755      2.69%     80.17% # Number of instructions fetched each cycle (Total)
system.switch_cpus.fetch.nisnDist::8        194021045     19.83%    100.00% # Number of instructions fetched each cycle (Total)
system.switch_cpus.fetch.nisnDist::overflows            0      0.00%    100.00% # Number of instructions fetched each cycle (Total)
system.switch_cpus.fetch.nisnDist::min_value            0                       # Number of instructions fetched each cycle (Total)
system.switch_cpus.fetch.nisnDist::max_value            8                       # Number of instructions fetched each cycle (Total)
system.switch_cpus.fetch.nisnDist::total    978320247                       # Number of instructions fetched each cycle (Total)
system.switch_cpus.fetch.branchRate          0.413829                       # Number of branch fetches per cycle
system.switch_cpus.fetch.rate                2.315283                       # Number of inst fetches per cycle
system.switch_cpus.itb.instHits                     0                       # ITB inst hits
system.switch_cpus.itb.instMisses                   0                       # ITB inst misses
system.switch_cpus.itb.readHits                     0                       # DTB read hits
system.switch_cpus.itb.readMisses                   0                       # DTB read misses
system.switch_cpus.itb.writeHits                    0                       # DTB write hits
system.switch_cpus.itb.writeMisses                  0                       # DTB write misses
system.switch_cpus.itb.inserts                      0                       # Number of times an entry is inserted into the TLB
system.switch_cpus.itb.flushTlb                     0                       # Number of times complete TLB was flushed
system.switch_cpus.itb.flushTlbMva                  0                       # Number of times TLB was flushed by MVA
system.switch_cpus.itb.flushTlbMvaAsid              0                       # Number of times TLB was flushed by MVA & ASID
system.switch_cpus.itb.flushTlbAsid                 0                       # Number of times TLB was flushed by ASID
system.switch_cpus.itb.flushedEntries               0                       # Number of entries that have been flushed from TLB
system.switch_cpus.itb.alignFaults                  0                       # Number of TLB faults due to alignment restrictions
system.switch_cpus.itb.prefetchFaults               0                       # Number of TLB faults due to prefetch
system.switch_cpus.itb.domainFaults                 0                       # Number of TLB faults due to domain restrictions
system.switch_cpus.itb.permsFaults                  0                       # Number of TLB faults due to permissions restrictions
system.switch_cpus.itb.readAccesses                 0                       # DTB read accesses
system.switch_cpus.itb.writeAccesses                0                       # DTB write accesses
system.switch_cpus.itb.instAccesses                 0                       # ITB inst accesses
system.switch_cpus.itb.hits                         0                       # Total TLB (inst and data) hits
system.switch_cpus.itb.misses                       0                       # Total TLB (inst and data) misses
system.switch_cpus.itb.accesses                     0                       # Total TLB (inst and data) accesses
system.switch_cpus.itb.stage2_mmu.stage2_tlb.instHits            0                       # ITB inst hits
system.switch_cpus.itb.stage2_mmu.stage2_tlb.instMisses            0                       # ITB inst misses
system.switch_cpus.itb.stage2_mmu.stage2_tlb.readHits            0                       # DTB read hits
system.switch_cpus.itb.stage2_mmu.stage2_tlb.readMisses            0                       # DTB read misses
system.switch_cpus.itb.stage2_mmu.stage2_tlb.writeHits            0                       # DTB write hits
system.switch_cpus.itb.stage2_mmu.stage2_tlb.writeMisses            0                       # DTB write misses
system.switch_cpus.itb.stage2_mmu.stage2_tlb.inserts            0                       # Number of times an entry is inserted into the TLB
system.switch_cpus.itb.stage2_mmu.stage2_tlb.flushTlb            0                       # Number of times complete TLB was flushed
system.switch_cpus.itb.stage2_mmu.stage2_tlb.flushTlbMva            0                       # Number of times TLB was flushed by MVA
system.switch_cpus.itb.stage2_mmu.stage2_tlb.flushTlbMvaAsid            0                       # Number of times TLB was flushed by MVA & ASID
system.switch_cpus.itb.stage2_mmu.stage2_tlb.flushTlbAsid            0                       # Number of times TLB was flushed by ASID
system.switch_cpus.itb.stage2_mmu.stage2_tlb.flushedEntries            0                       # Number of entries that have been flushed from TLB
system.switch_cpus.itb.stage2_mmu.stage2_tlb.alignFaults            0                       # Number of TLB faults due to alignment restrictions
system.switch_cpus.itb.stage2_mmu.stage2_tlb.prefetchFaults            0                       # Number of TLB faults due to prefetch
system.switch_cpus.itb.stage2_mmu.stage2_tlb.domainFaults            0                       # Number of TLB faults due to domain restrictions
system.switch_cpus.itb.stage2_mmu.stage2_tlb.permsFaults            0                       # Number of TLB faults due to permissions restrictions
system.switch_cpus.itb.stage2_mmu.stage2_tlb.readAccesses            0                       # DTB read accesses
system.switch_cpus.itb.stage2_mmu.stage2_tlb.writeAccesses            0                       # DTB write accesses
system.switch_cpus.itb.stage2_mmu.stage2_tlb.instAccesses            0                       # ITB inst accesses
system.switch_cpus.itb.stage2_mmu.stage2_tlb.hits            0                       # Total TLB (inst and data) hits
system.switch_cpus.itb.stage2_mmu.stage2_tlb.misses            0                       # Total TLB (inst and data) misses
system.switch_cpus.itb.stage2_mmu.stage2_tlb.accesses            0                       # Total TLB (inst and data) accesses
system.switch_cpus.itb.stage2_mmu.stage2_tlb.walker.walks            0                       # Table walker walks requested
system.switch_cpus.itb.stage2_mmu.stage2_tlb.walker.requestOrigin_Requested::Data            0                       # Table walker requests started/completed, data/inst
system.switch_cpus.itb.stage2_mmu.stage2_tlb.walker.requestOrigin_Requested::Inst            0                       # Table walker requests started/completed, data/inst
system.switch_cpus.itb.stage2_mmu.stage2_tlb.walker.requestOrigin_Requested::total            0                       # Table walker requests started/completed, data/inst
system.switch_cpus.itb.stage2_mmu.stage2_tlb.walker.requestOrigin_Completed::Data            0                       # Table walker requests started/completed, data/inst
system.switch_cpus.itb.stage2_mmu.stage2_tlb.walker.requestOrigin_Completed::Inst            0                       # Table walker requests started/completed, data/inst
system.switch_cpus.itb.stage2_mmu.stage2_tlb.walker.requestOrigin_Completed::total            0                       # Table walker requests started/completed, data/inst
system.switch_cpus.itb.stage2_mmu.stage2_tlb.walker.requestOrigin::total            0                       # Table walker requests started/completed, data/inst
system.switch_cpus.itb.stage2_mmu.stage2_tlb.walker.power_state.pwrStateResidencyTicks::UNDEFINED 6238276238500                       # Cumulative time (in ticks) in various power states
system.switch_cpus.itb.walker.walks                 0                       # Table walker walks requested
system.switch_cpus.itb.walker.requestOrigin_Requested::Data            0                       # Table walker requests started/completed, data/inst
system.switch_cpus.itb.walker.requestOrigin_Requested::Inst            0                       # Table walker requests started/completed, data/inst
system.switch_cpus.itb.walker.requestOrigin_Requested::total            0                       # Table walker requests started/completed, data/inst
system.switch_cpus.itb.walker.requestOrigin_Completed::Data            0                       # Table walker requests started/completed, data/inst
system.switch_cpus.itb.walker.requestOrigin_Completed::Inst            0                       # Table walker requests started/completed, data/inst
system.switch_cpus.itb.walker.requestOrigin_Completed::total            0                       # Table walker requests started/completed, data/inst
system.switch_cpus.itb.walker.requestOrigin::total            0                       # Table walker requests started/completed, data/inst
system.switch_cpus.itb.walker.power_state.pwrStateResidencyTicks::UNDEFINED 6238276238500                       # Cumulative time (in ticks) in various power states
system.switch_cpus.lsq0.forwLoads            19696894                       # Number of loads that had data forwarded from stores
system.switch_cpus.lsq0.squashedLoads        57685159                       # Number of loads squashed
system.switch_cpus.lsq0.ignoredResponses       287518                       # Number of memory responses ignored because the instruction is squashed
system.switch_cpus.lsq0.memOrderViolation       231656                       # Number of memory ordering violations
system.switch_cpus.lsq0.squashedStores       36973702                       # Number of stores squashed
system.switch_cpus.lsq0.rescheduledLoads      7514476                       # Number of loads that were rescheduled
system.switch_cpus.lsq0.blockedByCache         109146                       # Number of times an access to memory failed due to the cache being blocked
system.switch_cpus.power_state.pwrStateResidencyTicks::OFF 497008395500                       # Cumulative time (in ticks) in various power states
system.switch_cpus.rename.squashCycles        7369864                       # Number of cycles rename is squashing
system.switch_cpus.rename.idleCycles        425052611                       # Number of cycles rename is idle
system.switch_cpus.rename.blockCycles        39095014                       # Number of cycles rename is blocking
system.switch_cpus.rename.serializeStallCycles      4587072                       # count of cycles rename stalledfor serializing inst
system.switch_cpus.rename.runCycles         475684488                       # Number of cycles rename is running
system.switch_cpus.rename.unblockCycles      26531194                       # Number of cycles rename is unblocking
system.switch_cpus.rename.renamedInsts     2536720531                       # Number of instructions processed by rename
system.switch_cpus.rename.ROBFullEvents        119083                       # Number of times rename has blocked due to ROB full
system.switch_cpus.rename.IQFullEvents        4035185                       # Number of times rename has blocked due to IQ full
system.switch_cpus.rename.LQFullEvents       19003195                       # Number of times rename has blocked due to LQ full
system.switch_cpus.rename.SQFullEvents        2703210                       # Number of times rename has blocked due to SQ full
system.switch_cpus.rename.renamedOperands   2516093065                       # Number of destination operands rename has renamed
system.switch_cpus.rename.lookups          3624124583                       # Number of register rename lookups that rename has made
system.switch_cpus.rename.intLookups       2894114784                       # Number of integer rename lookups
system.switch_cpus.rename.vecLookups          3936209                       # Number of vector rename lookups
system.switch_cpus.rename.vecPredLookups       667401                       # Number of vector predicate rename lookups
system.switch_cpus.rename.committedMaps    2238463984                       # Number of HB maps that are committed
system.switch_cpus.rename.undoneMaps        277629014                       # Number of HB maps that are undone due to squashing
system.switch_cpus.rename.serializing          274282                       # count of serializing insts renamed
system.switch_cpus.rename.tempSerializing          351                       # count of temporary serializing insts renamed
system.switch_cpus.rename.skidInsts          29379544                       # count of insts added to the skid buffer
system.switch_cpus.rob.reads               3295950827                       # The number of ROB reads
system.switch_cpus.rob.writes              5032550378                       # The number of ROB writes
system.switch_cpus.thread0.numInsts        2000000004                       # Number of Instructions committed
system.switch_cpus.thread0.numOps          2259497414                       # Number of Ops committed
system.switch_cpus.thread0.numMemRefs               0                       # Number of Memory References
system.tol2bus.trans_dist::ReadResp          11123310                       # Transaction distribution
system.tol2bus.trans_dist::WritebackDirty      2017072                       # Transaction distribution
system.tol2bus.trans_dist::WritebackClean      9516284                       # Transaction distribution
system.tol2bus.trans_dist::CleanEvict           22301                       # Transaction distribution
system.tol2bus.trans_dist::HardPFReq            30083                       # Transaction distribution
system.tol2bus.trans_dist::UpgradeReq             635                       # Transaction distribution
system.tol2bus.trans_dist::UpgradeResp            635                       # Transaction distribution
system.tol2bus.trans_dist::ReadExReq           400210                       # Transaction distribution
system.tol2bus.trans_dist::ReadExResp          400210                       # Transaction distribution
system.tol2bus.trans_dist::ReadCleanReq       6615150                       # Transaction distribution
system.tol2bus.trans_dist::ReadSharedReq      4508160                       # Transaction distribution
system.tol2bus.trans_dist::InvalidateReq         6168                       # Transaction distribution
system.tol2bus.trans_dist::InvalidateResp         6168                       # Transaction distribution
system.tol2bus.pkt_count_system.cpu.icache.mem_side_port::system.l2.cpu_side_port     19843443                       # Packet count per connected requestor and responder (bytes)
system.tol2bus.pkt_count_system.cpu.dcache.mem_side_port::system.l2.cpu_side_port     14744372                       # Packet count per connected requestor and responder (bytes)
system.tol2bus.pkt_count::total              34587815                       # Packet count per connected requestor and responder (bytes)
system.tol2bus.pkt_size_system.cpu.icache.mem_side_port::system.l2.cpu_side_port    846610752                       # Cumulative packet size per connected requestor and responder (bytes)
system.tol2bus.pkt_size_system.cpu.dcache.mem_side_port::system.l2.cpu_side_port    628633344                       # Cumulative packet size per connected requestor and responder (bytes)
system.tol2bus.pkt_size::total             1475244096                       # Cumulative packet size per connected requestor and responder (bytes)
system.tol2bus.snoops                           58571                       # Total snoops (count)
system.tol2bus.snoopTraffic                    395968                       # Total snoop traffic (bytes)
system.tol2bus.snoop_fanout::samples         11588012                       # Request fanout histogram
system.tol2bus.snoop_fanout::mean            0.005726                       # Request fanout histogram
system.tol2bus.snoop_fanout::stdev           0.075456                       # Request fanout histogram
system.tol2bus.snoop_fanout::underflows             0      0.00%      0.00% # Request fanout histogram
system.tol2bus.snoop_fanout::0               11521654     99.43%     99.43% # Request fanout histogram
system.tol2bus.snoop_fanout::1                  66358      0.57%    100.00% # Request fanout histogram
system.tol2bus.snoop_fanout::2                      0      0.00%    100.00% # Request fanout histogram
system.tol2bus.snoop_fanout::overflows              0      0.00%    100.00% # Request fanout histogram
system.tol2bus.snoop_fanout::min_value              0                       # Request fanout histogram
system.tol2bus.snoop_fanout::max_value              1                       # Request fanout histogram
system.tol2bus.snoop_fanout::total           11588012                       # Request fanout histogram
system.tol2bus.power_state.pwrStateResidencyTicks::UNDEFINED 6238276238500                       # Cumulative time (in ticks) in various power states
system.tol2bus.reqLayer0.occupancy        23057233998                       # Layer occupancy (ticks)
system.tol2bus.reqLayer0.utilization              4.6                       # Layer utilization (%)
system.tol2bus.respLayer0.occupancy        9928831744                       # Layer occupancy (ticks)
system.tol2bus.respLayer0.utilization             2.0                       # Layer utilization (%)
system.tol2bus.respLayer1.occupancy        7366550298                       # Layer occupancy (ticks)
system.tol2bus.respLayer1.utilization             1.5                       # Layer utilization (%)
system.voltage_domain.voltage                       1                       # Voltage in Volts

---------- End Simulation Statistics   ----------
