Global frequency set at 1000000000000 ticks per second
warn: Sockets disabled, not accepting gdb connections
gem5 Simulator System.  http://gem5.org
gem5 is copyrighted software; use the --copyright option for details.

gem5 version 20.1.0.0
gem5 compiled Apr 27 2025 02:59:48
gem5 started May  1 2025 11:15:02
gem5 executing on kabini, pid 3581644
command line: /home/maintainer/cs773_CompArch-Perf-Security/Final_Project/Workspace/mygem5_v20.1.0.0_Ghost_Mirage_ARM/build/ARM/gem5.opt --outdir merge_base_250501-11_15_02088 /home/maintainer/cs773_CompArch-Perf-Security/Final_Project/Workspace/mygem5_v20.1.0.0_Ghost_Mirage_ARM/configs/se.py --cmd ../../exe/xalancbmk_s_base.spec-64 --option '-v t5.xml xalanc.xsl' -i '' --num-cpus=1 --mem-size=16384MB --mem-type=DDR4_2400_8x8 --cpu-type DerivO3CPU --caches --l2cache --l1d_size=32kB --l1i_size=32kB --l2_size=8MB --l1d_assoc=8 --l1i_assoc=8 --l2_assoc=16 --fast-forward=10000000000 --warmup-insts=5000000 --maxinsts=2000000000 --prog-interval=100Hz

info: Standard input is not a terminal, disabling listeners.
Switch at instruction count:10000000000
warn: membus.slave is deprecated. `slave` is now called `cpu_side_ports`
warn: tol2bus.master is deprecated. `master` is now called `mem_side_ports`
warn: membus.slave is deprecated. `slave` is now called `cpu_side_ports`
warn: tol2bus.slave is deprecated. `slave` is now called `cpu_side_ports`
warn: tol2bus.slave is deprecated. `slave` is now called `cpu_side_ports`
warn: tol2bus.slave is deprecated. `slave` is now called `cpu_side_ports`
warn: tol2bus.slave is deprecated. `slave` is now called `cpu_side_ports`
warn: membus.master is deprecated. `master` is now called `mem_side_ports`
info: Entering event queue @ 0.  Starting simulation...
warn: ignoring syscall set_robust_list(...)
warn: ignoring syscall rseq(...)
      (further warnings will be suppressed)
info: Increasing stack size by one page.
warn: ignoring syscall getrandom(...)
warn: 	instruction 'bti' unimplemented
warn: ignoring syscall mprotect(...)
info: Increasing stack size by one page.
info: Increasing stack size by one page.
10000000000: Event_125: system.cpu progress event, total committed:19999734, progress insts committed: 19999734, IPC: 0.999987
20000000000: Event_125: system.cpu progress event, total committed:39999672, progress insts committed: 19999938, IPC: 0.999997
30000000000: Event_125: system.cpu progress event, total committed:59999579, progress insts committed: 19999907, IPC: 0.999995
40000000000: Event_125: system.cpu progress event, total committed:79999498, progress insts committed: 19999919, IPC: 0.999996
50000000000: Event_125: system.cpu progress event, total committed:99999418, progress insts committed: 19999920, IPC: 0.999996
60000000000: Event_125: system.cpu progress event, total committed:119999334, progress insts committed: 19999916, IPC: 0.999996
70000000000: Event_125: system.cpu progress event, total committed:139999258, progress insts committed: 19999924, IPC: 0.999996
80000000000: Event_125: system.cpu progress event, total committed:159999181, progress insts committed: 19999923, IPC: 0.999996
90000000000: Event_125: system.cpu progress event, total committed:179999104, progress insts committed: 19999923, IPC: 0.999996
100000000000: Event_125: system.cpu progress event, total committed:199999032, progress insts committed: 19999928, IPC: 0.999996
110000000000: Event_125: system.cpu progress event, total committed:219998961, progress insts committed: 19999929, IPC: 0.999996
120000000000: Event_125: system.cpu progress event, total committed:239998904, progress insts committed: 19999943, IPC: 0.999997
130000000000: Event_125: system.cpu progress event, total committed:259998833, progress insts committed: 19999929, IPC: 0.999996
140000000000: Event_125: system.cpu progress event, total committed:279998772, progress insts committed: 19999939, IPC: 0.999997
150000000000: Event_125: system.cpu progress event, total committed:299998717, progress insts committed: 19999945, IPC: 0.999997
160000000000: Event_125: system.cpu progress event, total committed:319998644, progress insts committed: 19999927, IPC: 0.999996
170000000000: Event_125: system.cpu progress event, total committed:339998576, progress insts committed: 19999932, IPC: 0.999997
180000000000: Event_125: system.cpu progress event, total committed:359998505, progress insts committed: 19999929, IPC: 0.999996
190000000000: Event_125: system.cpu progress event, total committed:379998440, progress insts committed: 19999935, IPC: 0.999997
200000000000: Event_125: system.cpu progress event, total committed:399998369, progress insts committed: 19999929, IPC: 0.999996
210000000000: Event_125: system.cpu progress event, total committed:419998315, progress insts committed: 19999946, IPC: 0.999997
220000000000: Event_125: system.cpu progress event, total committed:439998256, progress insts committed: 19999941, IPC: 0.999997
230000000000: Event_125: system.cpu progress event, total committed:459998195, progress insts committed: 19999939, IPC: 0.999997
240000000000: Event_125: system.cpu progress event, total committed:479998131, progress insts committed: 19999936, IPC: 0.999997
250000000000: Event_125: system.cpu progress event, total committed:499998064, progress insts committed: 19999933, IPC: 0.999997
260000000000: Event_125: system.cpu progress event, total committed:519998001, progress insts committed: 19999937, IPC: 0.999997
270000000000: Event_125: system.cpu progress event, total committed:539997937, progress insts committed: 19999936, IPC: 0.999997
280000000000: Event_125: system.cpu progress event, total committed:559997876, progress insts committed: 19999939, IPC: 0.999997
290000000000: Event_125: system.cpu progress event, total committed:579997812, progress insts committed: 19999936, IPC: 0.999997
300000000000: Event_125: system.cpu progress event, total committed:599997761, progress insts committed: 19999949, IPC: 0.999997
310000000000: Event_125: system.cpu progress event, total committed:619997696, progress insts committed: 19999935, IPC: 0.999997
320000000000: Event_125: system.cpu progress event, total committed:639997642, progress insts committed: 19999946, IPC: 0.999997
330000000000: Event_125: system.cpu progress event, total committed:659997580, progress insts committed: 19999938, IPC: 0.999997
340000000000: Event_125: system.cpu progress event, total committed:679997525, progress insts committed: 19999945, IPC: 0.999997
350000000000: Event_125: system.cpu progress event, total committed:699997465, progress insts committed: 19999940, IPC: 0.999997
360000000000: Event_125: system.cpu progress event, total committed:719997406, progress insts committed: 19999941, IPC: 0.999997
370000000000: Event_125: system.cpu progress event, total committed:739997351, progress insts committed: 19999945, IPC: 0.999997
380000000000: Event_125: system.cpu progress event, total committed:759997289, progress insts committed: 19999938, IPC: 0.999997
390000000000: Event_125: system.cpu progress event, total committed:779997239, progress insts committed: 19999950, IPC: 0.999997
400000000000: Event_125: system.cpu progress event, total committed:799997177, progress insts committed: 19999938, IPC: 0.999997
410000000000: Event_125: system.cpu progress event, total committed:819997112, progress insts committed: 19999935, IPC: 0.999997
420000000000: Event_125: system.cpu progress event, total committed:839997065, progress insts committed: 19999953, IPC: 0.999998
430000000000: Event_125: system.cpu progress event, total committed:859997015, progress insts committed: 19999950, IPC: 0.999997
440000000000: Event_125: system.cpu progress event, total committed:879996939, progress insts committed: 19999924, IPC: 0.999996
450000000000: Event_125: system.cpu progress event, total committed:899996886, progress insts committed: 19999947, IPC: 0.999997
460000000000: Event_125: system.cpu progress event, total committed:919996839, progress insts committed: 19999953, IPC: 0.999998
470000000000: Event_125: system.cpu progress event, total committed:939996780, progress insts committed: 19999941, IPC: 0.999997
480000000000: Event_125: system.cpu progress event, total committed:959996722, progress insts committed: 19999942, IPC: 0.999997
490000000000: Event_125: system.cpu progress event, total committed:979996674, progress insts committed: 19999952, IPC: 0.999998
500000000000: Event_125: system.cpu progress event, total committed:999996614, progress insts committed: 19999940, IPC: 0.999997
510000000000: Event_125: system.cpu progress event, total committed:1019996570, progress insts committed: 19999956, IPC: 0.999998
520000000000: Event_125: system.cpu progress event, total committed:1039996525, progress insts committed: 19999955, IPC: 0.999998
530000000000: Event_125: system.cpu progress event, total committed:1059996475, progress insts committed: 19999950, IPC: 0.999997
540000000000: Event_125: system.cpu progress event, total committed:1079996416, progress insts committed: 19999941, IPC: 0.999997
550000000000: Event_125: system.cpu progress event, total committed:1099996356, progress insts committed: 19999940, IPC: 0.999997
560000000000: Event_125: system.cpu progress event, total committed:1119996296, progress insts committed: 19999940, IPC: 0.999997
570000000000: Event_125: system.cpu progress event, total committed:1139996240, progress insts committed: 19999944, IPC: 0.999997
580000000000: Event_125: system.cpu progress event, total committed:1159996178, progress insts committed: 19999938, IPC: 0.999997
590000000000: Event_125: system.cpu progress event, total committed:1179996130, progress insts committed: 19999952, IPC: 0.999998
600000000000: Event_125: system.cpu progress event, total committed:1199996069, progress insts committed: 19999939, IPC: 0.999997
610000000000: Event_125: system.cpu progress event, total committed:1219996022, progress insts committed: 19999953, IPC: 0.999998
620000000000: Event_125: system.cpu progress event, total committed:1239995961, progress insts committed: 19999939, IPC: 0.999997
630000000000: Event_125: system.cpu progress event, total committed:1259995903, progress insts committed: 19999942, IPC: 0.999997
640000000000: Event_125: system.cpu progress event, total committed:1279995849, progress insts committed: 19999946, IPC: 0.999997
650000000000: Event_125: system.cpu progress event, total committed:1299995794, progress insts committed: 19999945, IPC: 0.999997
660000000000: Event_125: system.cpu progress event, total committed:1319995735, progress insts committed: 19999941, IPC: 0.999997
670000000000: Event_125: system.cpu progress event, total committed:1339995675, progress insts committed: 19999940, IPC: 0.999997
680000000000: Event_125: system.cpu progress event, total committed:1359995621, progress insts committed: 19999946, IPC: 0.999997
690000000000: Event_125: system.cpu progress event, total committed:1379995562, progress insts committed: 19999941, IPC: 0.999997
700000000000: Event_125: system.cpu progress event, total committed:1399995515, progress insts committed: 19999953, IPC: 0.999998
710000000000: Event_125: system.cpu progress event, total committed:1419995467, progress insts committed: 19999952, IPC: 0.999998
720000000000: Event_125: system.cpu progress event, total committed:1439995408, progress insts committed: 19999941, IPC: 0.999997
730000000000: Event_125: system.cpu progress event, total committed:1459995356, progress insts committed: 19999948, IPC: 0.999997
740000000000: Event_125: system.cpu progress event, total committed:1479995299, progress insts committed: 19999943, IPC: 0.999997
750000000000: Event_125: system.cpu progress event, total committed:1499995247, progress insts committed: 19999948, IPC: 0.999997
760000000000: Event_125: system.cpu progress event, total committed:1519995182, progress insts committed: 19999935, IPC: 0.999997
770000000000: Event_125: system.cpu progress event, total committed:1539995122, progress insts committed: 19999940, IPC: 0.999997
780000000000: Event_125: system.cpu progress event, total committed:1559995071, progress insts committed: 19999949, IPC: 0.999997
790000000000: Event_125: system.cpu progress event, total committed:1579995016, progress insts committed: 19999945, IPC: 0.999997
800000000000: Event_125: system.cpu progress event, total committed:1599994967, progress insts committed: 19999951, IPC: 0.999998
810000000000: Event_125: system.cpu progress event, total committed:1619994904, progress insts committed: 19999937, IPC: 0.999997
820000000000: Event_125: system.cpu progress event, total committed:1639994860, progress insts committed: 19999956, IPC: 0.999998
830000000000: Event_125: system.cpu progress event, total committed:1659994809, progress insts committed: 19999949, IPC: 0.999997
840000000000: Event_125: system.cpu progress event, total committed:1679994761, progress insts committed: 19999952, IPC: 0.999998
850000000000: Event_125: system.cpu progress event, total committed:1699994713, progress insts committed: 19999952, IPC: 0.999998
860000000000: Event_125: system.cpu progress event, total committed:1719994662, progress insts committed: 19999949, IPC: 0.999997
870000000000: Event_125: system.cpu progress event, total committed:1739994609, progress insts committed: 19999947, IPC: 0.999997
880000000000: Event_125: system.cpu progress event, total committed:1759994562, progress insts committed: 19999953, IPC: 0.999998
890000000000: Event_125: system.cpu progress event, total committed:1779994509, progress insts committed: 19999947, IPC: 0.999997
900000000000: Event_125: system.cpu progress event, total committed:1799994452, progress insts committed: 19999943, IPC: 0.999997
910000000000: Event_125: system.cpu progress event, total committed:1819994398, progress insts committed: 19999946, IPC: 0.999997
920000000000: Event_125: system.cpu progress event, total committed:1839994344, progress insts committed: 19999946, IPC: 0.999997
930000000000: Event_125: system.cpu progress event, total committed:1859994290, progress insts committed: 19999946, IPC: 0.999997
940000000000: Event_125: system.cpu progress event, total committed:1879994252, progress insts committed: 19999962, IPC: 0.999998
950000000000: Event_125: system.cpu progress event, total committed:1899994196, progress insts committed: 19999944, IPC: 0.999997
960000000000: Event_125: system.cpu progress event, total committed:1919994145, progress insts committed: 19999949, IPC: 0.999997
970000000000: Event_125: system.cpu progress event, total committed:1939994097, progress insts committed: 19999952, IPC: 0.999998
980000000000: Event_125: system.cpu progress event, total committed:1959994054, progress insts committed: 19999957, IPC: 0.999998
990000000000: Event_125: system.cpu progress event, total committed:1979994009, progress insts committed: 19999955, IPC: 0.999998
1000000000000: Event_125: system.cpu progress event, total committed:1999993963, progress insts committed: 19999954, IPC: 0.999998
1010000000000: Event_125: system.cpu progress event, total committed:2019993901, progress insts committed: 19999938, IPC: 0.999997
1020000000000: Event_125: system.cpu progress event, total committed:2039993846, progress insts committed: 19999945, IPC: 0.999997
1030000000000: Event_125: system.cpu progress event, total committed:2059993792, progress insts committed: 19999946, IPC: 0.999997
1040000000000: Event_125: system.cpu progress event, total committed:2079993745, progress insts committed: 19999953, IPC: 0.999998
1050000000000: Event_125: system.cpu progress event, total committed:2099993705, progress insts committed: 19999960, IPC: 0.999998
1060000000000: Event_125: system.cpu progress event, total committed:2119993660, progress insts committed: 19999955, IPC: 0.999998
1070000000000: Event_125: system.cpu progress event, total committed:2139993607, progress insts committed: 19999947, IPC: 0.999997
1080000000000: Event_125: system.cpu progress event, total committed:2159993566, progress insts committed: 19999959, IPC: 0.999998
1090000000000: Event_125: system.cpu progress event, total committed:2179993518, progress insts committed: 19999952, IPC: 0.999998
1100000000000: Event_125: system.cpu progress event, total committed:2199993464, progress insts committed: 19999946, IPC: 0.999997
1110000000000: Event_125: system.cpu progress event, total committed:2219993419, progress insts committed: 19999955, IPC: 0.999998
1120000000000: Event_125: system.cpu progress event, total committed:2239993364, progress insts committed: 19999945, IPC: 0.999997
1130000000000: Event_125: system.cpu progress event, total committed:2259993314, progress insts committed: 19999950, IPC: 0.999997
1140000000000: Event_125: system.cpu progress event, total committed:2279993276, progress insts committed: 19999962, IPC: 0.999998
1150000000000: Event_125: system.cpu progress event, total committed:2299993227, progress insts committed: 19999951, IPC: 0.999998
1160000000000: Event_125: system.cpu progress event, total committed:2319993182, progress insts committed: 19999955, IPC: 0.999998
1170000000000: Event_125: system.cpu progress event, total committed:2339993127, progress insts committed: 19999945, IPC: 0.999997
1180000000000: Event_125: system.cpu progress event, total committed:2359993082, progress insts committed: 19999955, IPC: 0.999998
1190000000000: Event_125: system.cpu progress event, total committed:2379993040, progress insts committed: 19999958, IPC: 0.999998
1200000000000: Event_125: system.cpu progress event, total committed:2399992986, progress insts committed: 19999946, IPC: 0.999997
1210000000000: Event_125: system.cpu progress event, total committed:2419992941, progress insts committed: 19999955, IPC: 0.999998
1220000000000: Event_125: system.cpu progress event, total committed:2439992895, progress insts committed: 19999954, IPC: 0.999998
1230000000000: Event_125: system.cpu progress event, total committed:2459992853, progress insts committed: 19999958, IPC: 0.999998
1240000000000: Event_125: system.cpu progress event, total committed:2479992806, progress insts committed: 19999953, IPC: 0.999998
1250000000000: Event_125: system.cpu progress event, total committed:2499992763, progress insts committed: 19999957, IPC: 0.999998
1260000000000: Event_125: system.cpu progress event, total committed:2519992718, progress insts committed: 19999955, IPC: 0.999998
1270000000000: Event_125: system.cpu progress event, total committed:2539992670, progress insts committed: 19999952, IPC: 0.999998
1280000000000: Event_125: system.cpu progress event, total committed:2559992620, progress insts committed: 19999950, IPC: 0.999997
1290000000000: Event_125: system.cpu progress event, total committed:2579992562, progress insts committed: 19999942, IPC: 0.999997
1300000000000: Event_125: system.cpu progress event, total committed:2599992514, progress insts committed: 19999952, IPC: 0.999998
1310000000000: Event_125: system.cpu progress event, total committed:2619992466, progress insts committed: 19999952, IPC: 0.999998
1320000000000: Event_125: system.cpu progress event, total committed:2639992421, progress insts committed: 19999955, IPC: 0.999998
1330000000000: Event_125: system.cpu progress event, total committed:2659992381, progress insts committed: 19999960, IPC: 0.999998
1340000000000: Event_125: system.cpu progress event, total committed:2679992337, progress insts committed: 19999956, IPC: 0.999998
1350000000000: Event_125: system.cpu progress event, total committed:2699992282, progress insts committed: 19999945, IPC: 0.999997
1360000000000: Event_125: system.cpu progress event, total committed:2719992229, progress insts committed: 19999947, IPC: 0.999997
1370000000000: Event_125: system.cpu progress event, total committed:2739992183, progress insts committed: 19999954, IPC: 0.999998
1380000000000: Event_125: system.cpu progress event, total committed:2759992141, progress insts committed: 19999958, IPC: 0.999998
1390000000000: Event_125: system.cpu progress event, total committed:2779992099, progress insts committed: 19999958, IPC: 0.999998
1400000000000: Event_125: system.cpu progress event, total committed:2799992054, progress insts committed: 19999955, IPC: 0.999998
1410000000000: Event_125: system.cpu progress event, total committed:2819992006, progress insts committed: 19999952, IPC: 0.999998
1420000000000: Event_125: system.cpu progress event, total committed:2839991969, progress insts committed: 19999963, IPC: 0.999998
1430000000000: Event_125: system.cpu progress event, total committed:2859991915, progress insts committed: 19999946, IPC: 0.999997
1440000000000: Event_125: system.cpu progress event, total committed:2879991856, progress insts committed: 19999941, IPC: 0.999997
1450000000000: Event_125: system.cpu progress event, total committed:2899991814, progress insts committed: 19999958, IPC: 0.999998
1460000000000: Event_125: system.cpu progress event, total committed:2919991770, progress insts committed: 19999956, IPC: 0.999998
1470000000000: Event_125: system.cpu progress event, total committed:2939991733, progress insts committed: 19999963, IPC: 0.999998
1480000000000: Event_125: system.cpu progress event, total committed:2959991695, progress insts committed: 19999962, IPC: 0.999998
1490000000000: Event_125: system.cpu progress event, total committed:2979991651, progress insts committed: 19999956, IPC: 0.999998
1500000000000: Event_125: system.cpu progress event, total committed:2999991613, progress insts committed: 19999962, IPC: 0.999998
1510000000000: Event_125: system.cpu progress event, total committed:3019991562, progress insts committed: 19999949, IPC: 0.999997
1520000000000: Event_125: system.cpu progress event, total committed:3039991515, progress insts committed: 19999953, IPC: 0.999998
1530000000000: Event_125: system.cpu progress event, total committed:3059991481, progress insts committed: 19999966, IPC: 0.999998
1540000000000: Event_125: system.cpu progress event, total committed:3079991434, progress insts committed: 19999953, IPC: 0.999998
1550000000000: Event_125: system.cpu progress event, total committed:3099991375, progress insts committed: 19999941, IPC: 0.999997
1560000000000: Event_125: system.cpu progress event, total committed:3119991336, progress insts committed: 19999961, IPC: 0.999998
1570000000000: Event_125: system.cpu progress event, total committed:3139991292, progress insts committed: 19999956, IPC: 0.999998
1580000000000: Event_125: system.cpu progress event, total committed:3159991252, progress insts committed: 19999960, IPC: 0.999998
1590000000000: Event_125: system.cpu progress event, total committed:3179991210, progress insts committed: 19999958, IPC: 0.999998
1600000000000: Event_125: system.cpu progress event, total committed:3199991166, progress insts committed: 19999956, IPC: 0.999998
1610000000000: Event_125: system.cpu progress event, total committed:3219991122, progress insts committed: 19999956, IPC: 0.999998
1620000000000: Event_125: system.cpu progress event, total committed:3239991075, progress insts committed: 19999953, IPC: 0.999998
1630000000000: Event_125: system.cpu progress event, total committed:3259991040, progress insts committed: 19999965, IPC: 0.999998
1640000000000: Event_125: system.cpu progress event, total committed:3279991001, progress insts committed: 19999961, IPC: 0.999998
1650000000000: Event_125: system.cpu progress event, total committed:3299990956, progress insts committed: 19999955, IPC: 0.999998
1660000000000: Event_125: system.cpu progress event, total committed:3319990907, progress insts committed: 19999951, IPC: 0.999998
1670000000000: Event_125: system.cpu progress event, total committed:3339990865, progress insts committed: 19999958, IPC: 0.999998
1680000000000: Event_125: system.cpu progress event, total committed:3359990818, progress insts committed: 19999953, IPC: 0.999998
1690000000000: Event_125: system.cpu progress event, total committed:3379990787, progress insts committed: 19999969, IPC: 0.999998
1700000000000: Event_125: system.cpu progress event, total committed:3399990738, progress insts committed: 19999951, IPC: 0.999998
1710000000000: Event_125: system.cpu progress event, total committed:3419990693, progress insts committed: 19999955, IPC: 0.999998
1720000000000: Event_125: system.cpu progress event, total committed:3439990649, progress insts committed: 19999956, IPC: 0.999998
1730000000000: Event_125: system.cpu progress event, total committed:3459990606, progress insts committed: 19999957, IPC: 0.999998
1740000000000: Event_125: system.cpu progress event, total committed:3479990559, progress insts committed: 19999953, IPC: 0.999998
1750000000000: Event_125: system.cpu progress event, total committed:3499990518, progress insts committed: 19999959, IPC: 0.999998
1760000000000: Event_125: system.cpu progress event, total committed:3519990467, progress insts committed: 19999949, IPC: 0.999997
1770000000000: Event_125: system.cpu progress event, total committed:3539990425, progress insts committed: 19999958, IPC: 0.999998
1780000000000: Event_125: system.cpu progress event, total committed:3559990387, progress insts committed: 19999962, IPC: 0.999998
1790000000000: Event_125: system.cpu progress event, total committed:3579990347, progress insts committed: 19999960, IPC: 0.999998
1800000000000: Event_125: system.cpu progress event, total committed:3599990310, progress insts committed: 19999963, IPC: 0.999998
1810000000000: Event_125: system.cpu progress event, total committed:3619990266, progress insts committed: 19999956, IPC: 0.999998
1820000000000: Event_125: system.cpu progress event, total committed:3639990226, progress insts committed: 19999960, IPC: 0.999998
1830000000000: Event_125: system.cpu progress event, total committed:3659990181, progress insts committed: 19999955, IPC: 0.999998
1840000000000: Event_125: system.cpu progress event, total committed:3679990137, progress insts committed: 19999956, IPC: 0.999998
1850000000000: Event_125: system.cpu progress event, total committed:3699990094, progress insts committed: 19999957, IPC: 0.999998
1860000000000: Event_125: system.cpu progress event, total committed:3719990048, progress insts committed: 19999954, IPC: 0.999998
1870000000000: Event_125: system.cpu progress event, total committed:3739990004, progress insts committed: 19999956, IPC: 0.999998
1880000000000: Event_125: system.cpu progress event, total committed:3759989952, progress insts committed: 19999948, IPC: 0.999997
1890000000000: Event_125: system.cpu progress event, total committed:3779989912, progress insts committed: 19999960, IPC: 0.999998
1900000000000: Event_125: system.cpu progress event, total committed:3799989875, progress insts committed: 19999963, IPC: 0.999998
1910000000000: Event_125: system.cpu progress event, total committed:3819989835, progress insts committed: 19999960, IPC: 0.999998
1920000000000: Event_125: system.cpu progress event, total committed:3839989790, progress insts committed: 19999955, IPC: 0.999998
1930000000000: Event_125: system.cpu progress event, total committed:3859989751, progress insts committed: 19999961, IPC: 0.999998
1940000000000: Event_125: system.cpu progress event, total committed:3879989713, progress insts committed: 19999962, IPC: 0.999998
1950000000000: Event_125: system.cpu progress event, total committed:3899989677, progress insts committed: 19999964, IPC: 0.999998
1960000000000: Event_125: system.cpu progress event, total committed:3919989629, progress insts committed: 19999952, IPC: 0.999998
1970000000000: Event_125: system.cpu progress event, total committed:3939989591, progress insts committed: 19999962, IPC: 0.999998
1980000000000: Event_125: system.cpu progress event, total committed:3959989554, progress insts committed: 19999963, IPC: 0.999998
1990000000000: Event_125: system.cpu progress event, total committed:3979989517, progress insts committed: 19999963, IPC: 0.999998
2000000000000: Event_125: system.cpu progress event, total committed:3999989479, progress insts committed: 19999962, IPC: 0.999998
2010000000000: Event_125: system.cpu progress event, total committed:4019989437, progress insts committed: 19999958, IPC: 0.999998
2020000000000: Event_125: system.cpu progress event, total committed:4039989394, progress insts committed: 19999957, IPC: 0.999998
2030000000000: Event_125: system.cpu progress event, total committed:4059989359, progress insts committed: 19999965, IPC: 0.999998
2040000000000: Event_125: system.cpu progress event, total committed:4079989317, progress insts committed: 19999958, IPC: 0.999998
2050000000000: Event_125: system.cpu progress event, total committed:4099989286, progress insts committed: 19999969, IPC: 0.999998
2060000000000: Event_125: system.cpu progress event, total committed:4119989249, progress insts committed: 19999963, IPC: 0.999998
2070000000000: Event_125: system.cpu progress event, total committed:4139989206, progress insts committed: 19999957, IPC: 0.999998
2080000000000: Event_125: system.cpu progress event, total committed:4159989165, progress insts committed: 19999959, IPC: 0.999998
2090000000000: Event_125: system.cpu progress event, total committed:4179989125, progress insts committed: 19999960, IPC: 0.999998
2100000000000: Event_125: system.cpu progress event, total committed:4199989086, progress insts committed: 19999961, IPC: 0.999998
2110000000000: Event_125: system.cpu progress event, total committed:4219989038, progress insts committed: 19999952, IPC: 0.999998
2120000000000: Event_125: system.cpu progress event, total committed:4239988970, progress insts committed: 19999932, IPC: 0.999997
2130000000000: Event_125: system.cpu progress event, total committed:4259988933, progress insts committed: 19999963, IPC: 0.999998
2140000000000: Event_125: system.cpu progress event, total committed:4279988891, progress insts committed: 19999958, IPC: 0.999998
2150000000000: Event_125: system.cpu progress event, total committed:4299988849, progress insts committed: 19999958, IPC: 0.999998
2160000000000: Event_125: system.cpu progress event, total committed:4319988800, progress insts committed: 19999951, IPC: 0.999998
2170000000000: Event_125: system.cpu progress event, total committed:4339988750, progress insts committed: 19999950, IPC: 0.999997
2180000000000: Event_125: system.cpu progress event, total committed:4359988712, progress insts committed: 19999962, IPC: 0.999998
2190000000000: Event_125: system.cpu progress event, total committed:4379988677, progress insts committed: 19999965, IPC: 0.999998
2200000000000: Event_125: system.cpu progress event, total committed:4399988645, progress insts committed: 19999968, IPC: 0.999998
2210000000000: Event_125: system.cpu progress event, total committed:4419988601, progress insts committed: 19999956, IPC: 0.999998
2220000000000: Event_125: system.cpu progress event, total committed:4439988570, progress insts committed: 19999969, IPC: 0.999998
2230000000000: Event_125: system.cpu progress event, total committed:4459988526, progress insts committed: 19999956, IPC: 0.999998
2240000000000: Event_125: system.cpu progress event, total committed:4479988488, progress insts committed: 19999962, IPC: 0.999998
2250000000000: Event_125: system.cpu progress event, total committed:4499988447, progress insts committed: 19999959, IPC: 0.999998
2260000000000: Event_125: system.cpu progress event, total committed:4519988410, progress insts committed: 19999963, IPC: 0.999998
2270000000000: Event_125: system.cpu progress event, total committed:4539988381, progress insts committed: 19999971, IPC: 0.999999
2280000000000: Event_125: system.cpu progress event, total committed:4559988340, progress insts committed: 19999959, IPC: 0.999998
2290000000000: Event_125: system.cpu progress event, total committed:4579988301, progress insts committed: 19999961, IPC: 0.999998
2300000000000: Event_125: system.cpu progress event, total committed:4599988268, progress insts committed: 19999967, IPC: 0.999998
2310000000000: Event_125: system.cpu progress event, total committed:4619988226, progress insts committed: 19999958, IPC: 0.999998
2320000000000: Event_125: system.cpu progress event, total committed:4639988193, progress insts committed: 19999967, IPC: 0.999998
2330000000000: Event_125: system.cpu progress event, total committed:4659988156, progress insts committed: 19999963, IPC: 0.999998
2340000000000: Event_125: system.cpu progress event, total committed:4679988109, progress insts committed: 19999953, IPC: 0.999998
2350000000000: Event_125: system.cpu progress event, total committed:4699988075, progress insts committed: 19999966, IPC: 0.999998
2360000000000: Event_125: system.cpu progress event, total committed:4719988028, progress insts committed: 19999953, IPC: 0.999998
2370000000000: Event_125: system.cpu progress event, total committed:4739987986, progress insts committed: 19999958, IPC: 0.999998
2380000000000: Event_125: system.cpu progress event, total committed:4759987951, progress insts committed: 19999965, IPC: 0.999998
2390000000000: Event_125: system.cpu progress event, total committed:4779987914, progress insts committed: 19999963, IPC: 0.999998
2400000000000: Event_125: system.cpu progress event, total committed:4799987880, progress insts committed: 19999966, IPC: 0.999998
2410000000000: Event_125: system.cpu progress event, total committed:4819987837, progress insts committed: 19999957, IPC: 0.999998
2420000000000: Event_125: system.cpu progress event, total committed:4839987793, progress insts committed: 19999956, IPC: 0.999998
2430000000000: Event_125: system.cpu progress event, total committed:4859987756, progress insts committed: 19999963, IPC: 0.999998
2440000000000: Event_125: system.cpu progress event, total committed:4879987706, progress insts committed: 19999950, IPC: 0.999997
2450000000000: Event_125: system.cpu progress event, total committed:4899987657, progress insts committed: 19999951, IPC: 0.999998
2460000000000: Event_125: system.cpu progress event, total committed:4919987619, progress insts committed: 19999962, IPC: 0.999998
2470000000000: Event_125: system.cpu progress event, total committed:4939987574, progress insts committed: 19999955, IPC: 0.999998
2480000000000: Event_125: system.cpu progress event, total committed:4959987532, progress insts committed: 19999958, IPC: 0.999998
2490000000000: Event_125: system.cpu progress event, total committed:4979987500, progress insts committed: 19999968, IPC: 0.999998
2500000000000: Event_125: system.cpu progress event, total committed:4999987461, progress insts committed: 19999961, IPC: 0.999998
2510000000000: Event_125: system.cpu progress event, total committed:5019987423, progress insts committed: 19999962, IPC: 0.999998
2520000000000: Event_125: system.cpu progress event, total committed:5039987391, progress insts committed: 19999968, IPC: 0.999998
2530000000000: Event_125: system.cpu progress event, total committed:5059987356, progress insts committed: 19999965, IPC: 0.999998
2540000000000: Event_125: system.cpu progress event, total committed:5079987314, progress insts committed: 19999958, IPC: 0.999998
2550000000000: Event_125: system.cpu progress event, total committed:5099987281, progress insts committed: 19999967, IPC: 0.999998
2560000000000: Event_125: system.cpu progress event, total committed:5119987240, progress insts committed: 19999959, IPC: 0.999998
2570000000000: Event_125: system.cpu progress event, total committed:5139987199, progress insts committed: 19999959, IPC: 0.999998
2580000000000: Event_125: system.cpu progress event, total committed:5159987158, progress insts committed: 19999959, IPC: 0.999998
2590000000000: Event_125: system.cpu progress event, total committed:5179987122, progress insts committed: 19999964, IPC: 0.999998
2600000000000: Event_125: system.cpu progress event, total committed:5199987087, progress insts committed: 19999965, IPC: 0.999998
2610000000000: Event_125: system.cpu progress event, total committed:5219987044, progress insts committed: 19999957, IPC: 0.999998
2620000000000: Event_125: system.cpu progress event, total committed:5239987002, progress insts committed: 19999958, IPC: 0.999998
2630000000000: Event_125: system.cpu progress event, total committed:5259986962, progress insts committed: 19999960, IPC: 0.999998
2640000000000: Event_125: system.cpu progress event, total committed:5279986915, progress insts committed: 19999953, IPC: 0.999998
2650000000000: Event_125: system.cpu progress event, total committed:5299986881, progress insts committed: 19999966, IPC: 0.999998
2660000000000: Event_125: system.cpu progress event, total committed:5319986851, progress insts committed: 19999970, IPC: 0.999999
2670000000000: Event_125: system.cpu progress event, total committed:5339986818, progress insts committed: 19999967, IPC: 0.999998
2680000000000: Event_125: system.cpu progress event, total committed:5359986787, progress insts committed: 19999969, IPC: 0.999998
2690000000000: Event_125: system.cpu progress event, total committed:5379986755, progress insts committed: 19999968, IPC: 0.999998
2700000000000: Event_125: system.cpu progress event, total committed:5399986721, progress insts committed: 19999966, IPC: 0.999998
2710000000000: Event_125: system.cpu progress event, total committed:5419986681, progress insts committed: 19999960, IPC: 0.999998
2720000000000: Event_125: system.cpu progress event, total committed:5439986652, progress insts committed: 19999971, IPC: 0.999999
2730000000000: Event_125: system.cpu progress event, total committed:5459986618, progress insts committed: 19999966, IPC: 0.999998
2740000000000: Event_125: system.cpu progress event, total committed:5479986588, progress insts committed: 19999970, IPC: 0.999999
2750000000000: Event_125: system.cpu progress event, total committed:5499986539, progress insts committed: 19999951, IPC: 0.999998
2760000000000: Event_125: system.cpu progress event, total committed:5519986494, progress insts committed: 19999955, IPC: 0.999998
2770000000000: Event_125: system.cpu progress event, total committed:5539986452, progress insts committed: 19999958, IPC: 0.999998
2780000000000: Event_125: system.cpu progress event, total committed:5559986409, progress insts committed: 19999957, IPC: 0.999998
2790000000000: Event_125: system.cpu progress event, total committed:5579986373, progress insts committed: 19999964, IPC: 0.999998
2800000000000: Event_125: system.cpu progress event, total committed:5599986329, progress insts committed: 19999956, IPC: 0.999998
2810000000000: Event_125: system.cpu progress event, total committed:5619986281, progress insts committed: 19999952, IPC: 0.999998
2820000000000: Event_125: system.cpu progress event, total committed:5639986245, progress insts committed: 19999964, IPC: 0.999998
2830000000000: Event_125: system.cpu progress event, total committed:5659986195, progress insts committed: 19999950, IPC: 0.999997
2840000000000: Event_125: system.cpu progress event, total committed:5679986162, progress insts committed: 19999967, IPC: 0.999998
2850000000000: Event_125: system.cpu progress event, total committed:5699986126, progress insts committed: 19999964, IPC: 0.999998
2860000000000: Event_125: system.cpu progress event, total committed:5719986085, progress insts committed: 19999959, IPC: 0.999998
2870000000000: Event_125: system.cpu progress event, total committed:5739986042, progress insts committed: 19999957, IPC: 0.999998
2880000000000: Event_125: system.cpu progress event, total committed:5759986008, progress insts committed: 19999966, IPC: 0.999998
2890000000000: Event_125: system.cpu progress event, total committed:5779985971, progress insts committed: 19999963, IPC: 0.999998
2900000000000: Event_125: system.cpu progress event, total committed:5799985939, progress insts committed: 19999968, IPC: 0.999998
2910000000000: Event_125: system.cpu progress event, total committed:5819985902, progress insts committed: 19999963, IPC: 0.999998
2920000000000: Event_125: system.cpu progress event, total committed:5839985860, progress insts committed: 19999958, IPC: 0.999998
2930000000000: Event_125: system.cpu progress event, total committed:5859985827, progress insts committed: 19999967, IPC: 0.999998
2940000000000: Event_125: system.cpu progress event, total committed:5879985787, progress insts committed: 19999960, IPC: 0.999998
2950000000000: Event_125: system.cpu progress event, total committed:5899985747, progress insts committed: 19999960, IPC: 0.999998
2960000000000: Event_125: system.cpu progress event, total committed:5919985706, progress insts committed: 19999959, IPC: 0.999998
2970000000000: Event_125: system.cpu progress event, total committed:5939985670, progress insts committed: 19999964, IPC: 0.999998
2980000000000: Event_125: system.cpu progress event, total committed:5959985637, progress insts committed: 19999967, IPC: 0.999998
2990000000000: Event_125: system.cpu progress event, total committed:5979985607, progress insts committed: 19999970, IPC: 0.999999
3000000000000: Event_125: system.cpu progress event, total committed:5999985557, progress insts committed: 19999950, IPC: 0.999997
3010000000000: Event_125: system.cpu progress event, total committed:6019985519, progress insts committed: 19999962, IPC: 0.999998
3020000000000: Event_125: system.cpu progress event, total committed:6039985475, progress insts committed: 19999956, IPC: 0.999998
3030000000000: Event_125: system.cpu progress event, total committed:6059985441, progress insts committed: 19999966, IPC: 0.999998
3040000000000: Event_125: system.cpu progress event, total committed:6079985406, progress insts committed: 19999965, IPC: 0.999998
3050000000000: Event_125: system.cpu progress event, total committed:6099985378, progress insts committed: 19999972, IPC: 0.999999
3060000000000: Event_125: system.cpu progress event, total committed:6119985341, progress insts committed: 19999963, IPC: 0.999998
3070000000000: Event_125: system.cpu progress event, total committed:6139985308, progress insts committed: 19999967, IPC: 0.999998
3080000000000: Event_125: system.cpu progress event, total committed:6159985269, progress insts committed: 19999961, IPC: 0.999998
3090000000000: Event_125: system.cpu progress event, total committed:6179985237, progress insts committed: 19999968, IPC: 0.999998
3100000000000: Event_125: system.cpu progress event, total committed:6199985193, progress insts committed: 19999956, IPC: 0.999998
3110000000000: Event_125: system.cpu progress event, total committed:6219985154, progress insts committed: 19999961, IPC: 0.999998
3120000000000: Event_125: system.cpu progress event, total committed:6239985120, progress insts committed: 19999966, IPC: 0.999998
3130000000000: Event_125: system.cpu progress event, total committed:6259985085, progress insts committed: 19999965, IPC: 0.999998
3140000000000: Event_125: system.cpu progress event, total committed:6279985049, progress insts committed: 19999964, IPC: 0.999998
3150000000000: Event_125: system.cpu progress event, total committed:6299985020, progress insts committed: 19999971, IPC: 0.999999
3160000000000: Event_125: system.cpu progress event, total committed:6319984989, progress insts committed: 19999969, IPC: 0.999998
3170000000000: Event_125: system.cpu progress event, total committed:6339984948, progress insts committed: 19999959, IPC: 0.999998
3180000000000: Event_125: system.cpu progress event, total committed:6359984914, progress insts committed: 19999966, IPC: 0.999998
3190000000000: Event_125: system.cpu progress event, total committed:6379984877, progress insts committed: 19999963, IPC: 0.999998
3200000000000: Event_125: system.cpu progress event, total committed:6399984844, progress insts committed: 19999967, IPC: 0.999998
3210000000000: Event_125: system.cpu progress event, total committed:6419984801, progress insts committed: 19999957, IPC: 0.999998
3220000000000: Event_125: system.cpu progress event, total committed:6439984760, progress insts committed: 19999959, IPC: 0.999998
3230000000000: Event_125: system.cpu progress event, total committed:6459984732, progress insts committed: 19999972, IPC: 0.999999
3240000000000: Event_125: system.cpu progress event, total committed:6479984684, progress insts committed: 19999952, IPC: 0.999998
3250000000000: Event_125: system.cpu progress event, total committed:6499984645, progress insts committed: 19999961, IPC: 0.999998
3260000000000: Event_125: system.cpu progress event, total committed:6519984617, progress insts committed: 19999972, IPC: 0.999999
3270000000000: Event_125: system.cpu progress event, total committed:6539984579, progress insts committed: 19999962, IPC: 0.999998
3280000000000: Event_125: system.cpu progress event, total committed:6559984546, progress insts committed: 19999967, IPC: 0.999998
3290000000000: Event_125: system.cpu progress event, total committed:6579984512, progress insts committed: 19999966, IPC: 0.999998
3300000000000: Event_125: system.cpu progress event, total committed:6599984474, progress insts committed: 19999962, IPC: 0.999998
3310000000000: Event_125: system.cpu progress event, total committed:6619984435, progress insts committed: 19999961, IPC: 0.999998
3320000000000: Event_125: system.cpu progress event, total committed:6639984403, progress insts committed: 19999968, IPC: 0.999998
3330000000000: Event_125: system.cpu progress event, total committed:6659984368, progress insts committed: 19999965, IPC: 0.999998
3340000000000: Event_125: system.cpu progress event, total committed:6679984337, progress insts committed: 19999969, IPC: 0.999998
3350000000000: Event_125: system.cpu progress event, total committed:6699984300, progress insts committed: 19999963, IPC: 0.999998
3360000000000: Event_125: system.cpu progress event, total committed:6719984259, progress insts committed: 19999959, IPC: 0.999998
3370000000000: Event_125: system.cpu progress event, total committed:6739984229, progress insts committed: 19999970, IPC: 0.999999
3380000000000: Event_125: system.cpu progress event, total committed:6759984188, progress insts committed: 19999959, IPC: 0.999998
3390000000000: Event_125: system.cpu progress event, total committed:6779984147, progress insts committed: 19999959, IPC: 0.999998
3400000000000: Event_125: system.cpu progress event, total committed:6799984113, progress insts committed: 19999966, IPC: 0.999998
3410000000000: Event_125: system.cpu progress event, total committed:6819984069, progress insts committed: 19999956, IPC: 0.999998
3420000000000: Event_125: system.cpu progress event, total committed:6839984020, progress insts committed: 19999951, IPC: 0.999998
3430000000000: Event_125: system.cpu progress event, total committed:6859983971, progress insts committed: 19999951, IPC: 0.999998
3440000000000: Event_125: system.cpu progress event, total committed:6879983943, progress insts committed: 19999972, IPC: 0.999999
3450000000000: Event_125: system.cpu progress event, total committed:6899983910, progress insts committed: 19999967, IPC: 0.999998
3460000000000: Event_125: system.cpu progress event, total committed:6919983878, progress insts committed: 19999968, IPC: 0.999998
3470000000000: Event_125: system.cpu progress event, total committed:6939983842, progress insts committed: 19999964, IPC: 0.999998
3480000000000: Event_125: system.cpu progress event, total committed:6959983799, progress insts committed: 19999957, IPC: 0.999998
3490000000000: Event_125: system.cpu progress event, total committed:6979983768, progress insts committed: 19999969, IPC: 0.999998
3500000000000: Event_125: system.cpu progress event, total committed:6999983732, progress insts committed: 19999964, IPC: 0.999998
3510000000000: Event_125: system.cpu progress event, total committed:7019983695, progress insts committed: 19999963, IPC: 0.999998
3520000000000: Event_125: system.cpu progress event, total committed:7039983664, progress insts committed: 19999969, IPC: 0.999998
3530000000000: Event_125: system.cpu progress event, total committed:7059983577, progress insts committed: 19999913, IPC: 0.999996
3540000000000: Event_125: system.cpu progress event, total committed:7079983569, progress insts committed: 19999992, IPC: 00000001
3550000000000: Event_125: system.cpu progress event, total committed:7099983535, progress insts committed: 19999966, IPC: 0.999998
3560000000000: Event_125: system.cpu progress event, total committed:7119983501, progress insts committed: 19999966, IPC: 0.999998
3570000000000: Event_125: system.cpu progress event, total committed:7139983464, progress insts committed: 19999963, IPC: 0.999998
3580000000000: Event_125: system.cpu progress event, total committed:7159983430, progress insts committed: 19999966, IPC: 0.999998
3590000000000: Event_125: system.cpu progress event, total committed:7179983394, progress insts committed: 19999964, IPC: 0.999998
3600000000000: Event_125: system.cpu progress event, total committed:7199983361, progress insts committed: 19999967, IPC: 0.999998
3610000000000: Event_125: system.cpu progress event, total committed:7219983335, progress insts committed: 19999974, IPC: 0.999999
3620000000000: Event_125: system.cpu progress event, total committed:7239983298, progress insts committed: 19999963, IPC: 0.999998
3630000000000: Event_125: system.cpu progress event, total committed:7259983267, progress insts committed: 19999969, IPC: 0.999998
3640000000000: Event_125: system.cpu progress event, total committed:7279983231, progress insts committed: 19999964, IPC: 0.999998
3650000000000: Event_125: system.cpu progress event, total committed:7299983205, progress insts committed: 19999974, IPC: 0.999999
3660000000000: Event_125: system.cpu progress event, total committed:7319983163, progress insts committed: 19999958, IPC: 0.999998
3670000000000: Event_125: system.cpu progress event, total committed:7339983125, progress insts committed: 19999962, IPC: 0.999998
3680000000000: Event_125: system.cpu progress event, total committed:7359983091, progress insts committed: 19999966, IPC: 0.999998
3690000000000: Event_125: system.cpu progress event, total committed:7379983058, progress insts committed: 19999967, IPC: 0.999998
3700000000000: Event_125: system.cpu progress event, total committed:7399983025, progress insts committed: 19999967, IPC: 0.999998
3710000000000: Event_125: system.cpu progress event, total committed:7419982985, progress insts committed: 19999960, IPC: 0.999998
3720000000000: Event_125: system.cpu progress event, total committed:7439982956, progress insts committed: 19999971, IPC: 0.999999
3730000000000: Event_125: system.cpu progress event, total committed:7459982915, progress insts committed: 19999959, IPC: 0.999998
3740000000000: Event_125: system.cpu progress event, total committed:7479982877, progress insts committed: 19999962, IPC: 0.999998
3750000000000: Event_125: system.cpu progress event, total committed:7499982839, progress insts committed: 19999962, IPC: 0.999998
3760000000000: Event_125: system.cpu progress event, total committed:7519982806, progress insts committed: 19999967, IPC: 0.999998
3770000000000: Event_125: system.cpu progress event, total committed:7539982773, progress insts committed: 19999967, IPC: 0.999998
3780000000000: Event_125: system.cpu progress event, total committed:7559982744, progress insts committed: 19999971, IPC: 0.999999
3790000000000: Event_125: system.cpu progress event, total committed:7579982702, progress insts committed: 19999958, IPC: 0.999998
3800000000000: Event_125: system.cpu progress event, total committed:7599982667, progress insts committed: 19999965, IPC: 0.999998
3810000000000: Event_125: system.cpu progress event, total committed:7619982632, progress insts committed: 19999965, IPC: 0.999998
3820000000000: Event_125: system.cpu progress event, total committed:7639982598, progress insts committed: 19999966, IPC: 0.999998
3830000000000: Event_125: system.cpu progress event, total committed:7659982555, progress insts committed: 19999957, IPC: 0.999998
3840000000000: Event_125: system.cpu progress event, total committed:7679982522, progress insts committed: 19999967, IPC: 0.999998
3850000000000: Event_125: system.cpu progress event, total committed:7699982489, progress insts committed: 19999967, IPC: 0.999998
3860000000000: Event_125: system.cpu progress event, total committed:7719982456, progress insts committed: 19999967, IPC: 0.999998
3870000000000: Event_125: system.cpu progress event, total committed:7739982424, progress insts committed: 19999968, IPC: 0.999998
3880000000000: Event_125: system.cpu progress event, total committed:7759982397, progress insts committed: 19999973, IPC: 0.999999
3890000000000: Event_125: system.cpu progress event, total committed:7779982364, progress insts committed: 19999967, IPC: 0.999998
3900000000000: Event_125: system.cpu progress event, total committed:7799982335, progress insts committed: 19999971, IPC: 0.999999
3910000000000: Event_125: system.cpu progress event, total committed:7819982309, progress insts committed: 19999974, IPC: 0.999999
3920000000000: Event_125: system.cpu progress event, total committed:7839982272, progress insts committed: 19999963, IPC: 0.999998
3930000000000: Event_125: system.cpu progress event, total committed:7859982242, progress insts committed: 19999970, IPC: 0.999999
3940000000000: Event_125: system.cpu progress event, total committed:7879982217, progress insts committed: 19999975, IPC: 0.999999
3950000000000: Event_125: system.cpu progress event, total committed:7899982182, progress insts committed: 19999965, IPC: 0.999998
3960000000000: Event_125: system.cpu progress event, total committed:7919982145, progress insts committed: 19999963, IPC: 0.999998
3970000000000: Event_125: system.cpu progress event, total committed:7939982113, progress insts committed: 19999968, IPC: 0.999998
3980000000000: Event_125: system.cpu progress event, total committed:7959982075, progress insts committed: 19999962, IPC: 0.999998
3990000000000: Event_125: system.cpu progress event, total committed:7979982044, progress insts committed: 19999969, IPC: 0.999998
4000000000000: Event_125: system.cpu progress event, total committed:7999982010, progress insts committed: 19999966, IPC: 0.999998
4010000000000: Event_125: system.cpu progress event, total committed:8019981975, progress insts committed: 19999965, IPC: 0.999998
4020000000000: Event_125: system.cpu progress event, total committed:8039981945, progress insts committed: 19999970, IPC: 0.999999
4030000000000: Event_125: system.cpu progress event, total committed:8059981916, progress insts committed: 19999971, IPC: 0.999999
4040000000000: Event_125: system.cpu progress event, total committed:8079981888, progress insts committed: 19999972, IPC: 0.999999
4050000000000: Event_125: system.cpu progress event, total committed:8099981851, progress insts committed: 19999963, IPC: 0.999998
4060000000000: Event_125: system.cpu progress event, total committed:8119981814, progress insts committed: 19999963, IPC: 0.999998
4070000000000: Event_125: system.cpu progress event, total committed:8139981784, progress insts committed: 19999970, IPC: 0.999999
4080000000000: Event_125: system.cpu progress event, total committed:8159981750, progress insts committed: 19999966, IPC: 0.999998
4090000000000: Event_125: system.cpu progress event, total committed:8179981722, progress insts committed: 19999972, IPC: 0.999999
4100000000000: Event_125: system.cpu progress event, total committed:8199981688, progress insts committed: 19999966, IPC: 0.999998
4110000000000: Event_125: system.cpu progress event, total committed:8219981647, progress insts committed: 19999959, IPC: 0.999998
4120000000000: Event_125: system.cpu progress event, total committed:8239981616, progress insts committed: 19999969, IPC: 0.999998
4130000000000: Event_125: system.cpu progress event, total committed:8259981582, progress insts committed: 19999966, IPC: 0.999998
4140000000000: Event_125: system.cpu progress event, total committed:8279981545, progress insts committed: 19999963, IPC: 0.999998
4150000000000: Event_125: system.cpu progress event, total committed:8299981512, progress insts committed: 19999967, IPC: 0.999998
4160000000000: Event_125: system.cpu progress event, total committed:8319981479, progress insts committed: 19999967, IPC: 0.999998
4170000000000: Event_125: system.cpu progress event, total committed:8339981443, progress insts committed: 19999964, IPC: 0.999998
4180000000000: Event_125: system.cpu progress event, total committed:8359981405, progress insts committed: 19999962, IPC: 0.999998
4190000000000: Event_125: system.cpu progress event, total committed:8379981371, progress insts committed: 19999966, IPC: 0.999998
4200000000000: Event_125: system.cpu progress event, total committed:8399981330, progress insts committed: 19999959, IPC: 0.999998
4210000000000: Event_125: system.cpu progress event, total committed:8419981292, progress insts committed: 19999962, IPC: 0.999998
4220000000000: Event_125: system.cpu progress event, total committed:8439981264, progress insts committed: 19999972, IPC: 0.999999
4230000000000: Event_125: system.cpu progress event, total committed:8459981231, progress insts committed: 19999967, IPC: 0.999998
4240000000000: Event_125: system.cpu progress event, total committed:8479981197, progress insts committed: 19999966, IPC: 0.999998
4250000000000: Event_125: system.cpu progress event, total committed:8499981161, progress insts committed: 19999964, IPC: 0.999998
4260000000000: Event_125: system.cpu progress event, total committed:8519981127, progress insts committed: 19999966, IPC: 0.999998
4270000000000: Event_125: system.cpu progress event, total committed:8539981091, progress insts committed: 19999964, IPC: 0.999998
4280000000000: Event_125: system.cpu progress event, total committed:8559981055, progress insts committed: 19999964, IPC: 0.999998
4290000000000: Event_125: system.cpu progress event, total committed:8579981029, progress insts committed: 19999974, IPC: 0.999999
4300000000000: Event_125: system.cpu progress event, total committed:8599980996, progress insts committed: 19999967, IPC: 0.999998
4310000000000: Event_125: system.cpu progress event, total committed:8619980966, progress insts committed: 19999970, IPC: 0.999999
4320000000000: Event_125: system.cpu progress event, total committed:8639980935, progress insts committed: 19999969, IPC: 0.999998
4330000000000: Event_125: system.cpu progress event, total committed:8659980898, progress insts committed: 19999963, IPC: 0.999998
4340000000000: Event_125: system.cpu progress event, total committed:8679980875, progress insts committed: 19999977, IPC: 0.999999
4350000000000: Event_125: system.cpu progress event, total committed:8699980843, progress insts committed: 19999968, IPC: 0.999998
4360000000000: Event_125: system.cpu progress event, total committed:8719980815, progress insts committed: 19999972, IPC: 0.999999
4370000000000: Event_125: system.cpu progress event, total committed:8739980788, progress insts committed: 19999973, IPC: 0.999999
4380000000000: Event_125: system.cpu progress event, total committed:8759980758, progress insts committed: 19999970, IPC: 0.999999
4390000000000: Event_125: system.cpu progress event, total committed:8779980728, progress insts committed: 19999970, IPC: 0.999999
4400000000000: Event_125: system.cpu progress event, total committed:8799980695, progress insts committed: 19999967, IPC: 0.999998
4410000000000: Event_125: system.cpu progress event, total committed:8819980663, progress insts committed: 19999968, IPC: 0.999998
4420000000000: Event_125: system.cpu progress event, total committed:8839980637, progress insts committed: 19999974, IPC: 0.999999
4430000000000: Event_125: system.cpu progress event, total committed:8859980607, progress insts committed: 19999970, IPC: 0.999999
4440000000000: Event_125: system.cpu progress event, total committed:8879980575, progress insts committed: 19999968, IPC: 0.999998
4450000000000: Event_125: system.cpu progress event, total committed:8899980539, progress insts committed: 19999964, IPC: 0.999998
4460000000000: Event_125: system.cpu progress event, total committed:8919980506, progress insts committed: 19999967, IPC: 0.999998
4470000000000: Event_125: system.cpu progress event, total committed:8939980473, progress insts committed: 19999967, IPC: 0.999998
4480000000000: Event_125: system.cpu progress event, total committed:8959980431, progress insts committed: 19999958, IPC: 0.999998
4490000000000: Event_125: system.cpu progress event, total committed:8979980397, progress insts committed: 19999966, IPC: 0.999998
4500000000000: Event_125: system.cpu progress event, total committed:8999980367, progress insts committed: 19999970, IPC: 0.999999
4510000000000: Event_125: system.cpu progress event, total committed:9019980335, progress insts committed: 19999968, IPC: 0.999998
4520000000000: Event_125: system.cpu progress event, total committed:9039980299, progress insts committed: 19999964, IPC: 0.999998
4530000000000: Event_125: system.cpu progress event, total committed:9059980269, progress insts committed: 19999970, IPC: 0.999999
4540000000000: Event_125: system.cpu progress event, total committed:9079980240, progress insts committed: 19999971, IPC: 0.999999
4550000000000: Event_125: system.cpu progress event, total committed:9099980200, progress insts committed: 19999960, IPC: 0.999998
4560000000000: Event_125: system.cpu progress event, total committed:9119980179, progress insts committed: 19999979, IPC: 0.999999
4570000000000: Event_125: system.cpu progress event, total committed:9139980149, progress insts committed: 19999970, IPC: 0.999999
4580000000000: Event_125: system.cpu progress event, total committed:9159980112, progress insts committed: 19999963, IPC: 0.999998
4590000000000: Event_125: system.cpu progress event, total committed:9179980081, progress insts committed: 19999969, IPC: 0.999998
4600000000000: Event_125: system.cpu progress event, total committed:9199980045, progress insts committed: 19999964, IPC: 0.999998
4610000000000: Event_125: system.cpu progress event, total committed:9219980021, progress insts committed: 19999976, IPC: 0.999999
4620000000000: Event_125: system.cpu progress event, total committed:9239979978, progress insts committed: 19999957, IPC: 0.999998
4630000000000: Event_125: system.cpu progress event, total committed:9259979945, progress insts committed: 19999967, IPC: 0.999998
4640000000000: Event_125: system.cpu progress event, total committed:9279979916, progress insts committed: 19999971, IPC: 0.999999
4650000000000: Event_125: system.cpu progress event, total committed:9299979889, progress insts committed: 19999973, IPC: 0.999999
4660000000000: Event_125: system.cpu progress event, total committed:9319979861, progress insts committed: 19999972, IPC: 0.999999
4670000000000: Event_125: system.cpu progress event, total committed:9339979829, progress insts committed: 19999968, IPC: 0.999998
4680000000000: Event_125: system.cpu progress event, total committed:9359979797, progress insts committed: 19999968, IPC: 0.999998
4690000000000: Event_125: system.cpu progress event, total committed:9379979768, progress insts committed: 19999971, IPC: 0.999999
4700000000000: Event_125: system.cpu progress event, total committed:9399979740, progress insts committed: 19999972, IPC: 0.999999
4710000000000: Event_125: system.cpu progress event, total committed:9419979708, progress insts committed: 19999968, IPC: 0.999998
4720000000000: Event_125: system.cpu progress event, total committed:9439979678, progress insts committed: 19999970, IPC: 0.999999
4730000000000: Event_125: system.cpu progress event, total committed:9459979652, progress insts committed: 19999974, IPC: 0.999999
4740000000000: Event_125: system.cpu progress event, total committed:9479979623, progress insts committed: 19999971, IPC: 0.999999
4750000000000: Event_125: system.cpu progress event, total committed:9499979594, progress insts committed: 19999971, IPC: 0.999999
4760000000000: Event_125: system.cpu progress event, total committed:9519979564, progress insts committed: 19999970, IPC: 0.999999
4770000000000: Event_125: system.cpu progress event, total committed:9539979525, progress insts committed: 19999961, IPC: 0.999998
4780000000000: Event_125: system.cpu progress event, total committed:9559979498, progress insts committed: 19999973, IPC: 0.999999
4790000000000: Event_125: system.cpu progress event, total committed:9579979462, progress insts committed: 19999964, IPC: 0.999998
4800000000000: Event_125: system.cpu progress event, total committed:9599979439, progress insts committed: 19999977, IPC: 0.999999
4810000000000: Event_125: system.cpu progress event, total committed:9619979400, progress insts committed: 19999961, IPC: 0.999998
4820000000000: Event_125: system.cpu progress event, total committed:9639979373, progress insts committed: 19999973, IPC: 0.999999
4830000000000: Event_125: system.cpu progress event, total committed:9659979341, progress insts committed: 19999968, IPC: 0.999998
4840000000000: Event_125: system.cpu progress event, total committed:9679979312, progress insts committed: 19999971, IPC: 0.999999
4850000000000: Event_125: system.cpu progress event, total committed:9699979273, progress insts committed: 19999961, IPC: 0.999998
4860000000000: Event_125: system.cpu progress event, total committed:9719979245, progress insts committed: 19999972, IPC: 0.999999
4870000000000: Event_125: system.cpu progress event, total committed:9739979211, progress insts committed: 19999966, IPC: 0.999998
4880000000000: Event_125: system.cpu progress event, total committed:9759979181, progress insts committed: 19999970, IPC: 0.999999
4890000000000: Event_125: system.cpu progress event, total committed:9779979145, progress insts committed: 19999964, IPC: 0.999998
4900000000000: Event_125: system.cpu progress event, total committed:9799979112, progress insts committed: 19999967, IPC: 0.999998
4910000000000: Event_125: system.cpu progress event, total committed:9819979086, progress insts committed: 19999974, IPC: 0.999999
4920000000000: Event_125: system.cpu progress event, total committed:9839979057, progress insts committed: 19999971, IPC: 0.999999
4930000000000: Event_125: system.cpu progress event, total committed:9859979027, progress insts committed: 19999970, IPC: 0.999999
4940000000000: Event_125: system.cpu progress event, total committed:9879978995, progress insts committed: 19999968, IPC: 0.999998
4950000000000: Event_125: system.cpu progress event, total committed:9899978962, progress insts committed: 19999967, IPC: 0.999998
4960000000000: Event_125: system.cpu progress event, total committed:9919978934, progress insts committed: 19999972, IPC: 0.999999
4970000000000: Event_125: system.cpu progress event, total committed:9939978906, progress insts committed: 19999972, IPC: 0.999999
4980000000000: Event_125: system.cpu progress event, total committed:9959978878, progress insts committed: 19999972, IPC: 0.999999
4990000000000: Event_125: system.cpu progress event, total committed:9979978856, progress insts committed: 19999978, IPC: 0.999999
5000000000000: Event_125: system.cpu progress event, total committed:9999978826, progress insts committed: 19999970, IPC: 0.999999
5010000000000: Event_125: system.cpu progress event, total committed:10019978795, progress insts committed: 19999969, IPC: 0.999998
5020000000000: Event_125: system.cpu progress event, total committed:10039978766, progress insts committed: 19999971, IPC: 0.999999
5030000000000: Event_125: system.cpu progress event, total committed:10059978740, progress insts committed: 19999974, IPC: 0.999999
5040000000000: Event_125: system.cpu progress event, total committed:10079978705, progress insts committed: 19999965, IPC: 0.999998
5050000000000: Event_125: system.cpu progress event, total committed:10099978676, progress insts committed: 19999971, IPC: 0.999999
5060000000000: Event_125: system.cpu progress event, total committed:10119978654, progress insts committed: 19999978, IPC: 0.999999
5070000000000: Event_125: system.cpu progress event, total committed:10139978627, progress insts committed: 19999973, IPC: 0.999999
5080000000000: Event_125: system.cpu progress event, total committed:10159978598, progress insts committed: 19999971, IPC: 0.999999
5090000000000: Event_125: system.cpu progress event, total committed:10179978578, progress insts committed: 19999980, IPC: 0.999999
5100000000000: Event_125: system.cpu progress event, total committed:10199978546, progress insts committed: 19999968, IPC: 0.999998
5110000000000: Event_125: system.cpu progress event, total committed:10219978517, progress insts committed: 19999971, IPC: 0.999999
5120000000000: Event_125: system.cpu progress event, total committed:10239978485, progress insts committed: 19999968, IPC: 0.999998
5130000000000: Event_125: system.cpu progress event, total committed:10259978461, progress insts committed: 19999976, IPC: 0.999999
5140000000000: Event_125: system.cpu progress event, total committed:10279978426, progress insts committed: 19999965, IPC: 0.999998
5150000000000: Event_125: system.cpu progress event, total committed:10299978398, progress insts committed: 19999972, IPC: 0.999999
5160000000000: Event_125: system.cpu progress event, total committed:10319978368, progress insts committed: 19999970, IPC: 0.999999
5170000000000: Event_125: system.cpu progress event, total committed:10339978344, progress insts committed: 19999976, IPC: 0.999999
5180000000000: Event_125: system.cpu progress event, total committed:10359978321, progress insts committed: 19999977, IPC: 0.999999
5190000000000: Event_125: system.cpu progress event, total committed:10379978297, progress insts committed: 19999976, IPC: 0.999999
5200000000000: Event_125: system.cpu progress event, total committed:10399978268, progress insts committed: 19999971, IPC: 0.999999
5210000000000: Event_125: system.cpu progress event, total committed:10419978238, progress insts committed: 19999970, IPC: 0.999999
5220000000000: Event_125: system.cpu progress event, total committed:10439978212, progress insts committed: 19999974, IPC: 0.999999
5230000000000: Event_125: system.cpu progress event, total committed:10459978182, progress insts committed: 19999970, IPC: 0.999999
5240000000000: Event_125: system.cpu progress event, total committed:10479978152, progress insts committed: 19999970, IPC: 0.999999
5250000000000: Event_125: system.cpu progress event, total committed:10499978123, progress insts committed: 19999971, IPC: 0.999999
5260000000000: Event_125: system.cpu progress event, total committed:10519978081, progress insts committed: 19999958, IPC: 0.999998
5270000000000: Event_125: system.cpu progress event, total committed:10539978044, progress insts committed: 19999963, IPC: 0.999998
5280000000000: Event_125: system.cpu progress event, total committed:10559978010, progress insts committed: 19999966, IPC: 0.999998
5290000000000: Event_125: system.cpu progress event, total committed:10579977975, progress insts committed: 19999965, IPC: 0.999998
5300000000000: Event_125: system.cpu progress event, total committed:10599977945, progress insts committed: 19999970, IPC: 0.999999
5310000000000: Event_125: system.cpu progress event, total committed:10619977914, progress insts committed: 19999969, IPC: 0.999998
5320000000000: Event_125: system.cpu progress event, total committed:10639977884, progress insts committed: 19999970, IPC: 0.999999
5330000000000: Event_125: system.cpu progress event, total committed:10659977853, progress insts committed: 19999969, IPC: 0.999998
5340000000000: Event_125: system.cpu progress event, total committed:10679977820, progress insts committed: 19999967, IPC: 0.999998
5350000000000: Event_125: system.cpu progress event, total committed:10699977789, progress insts committed: 19999969, IPC: 0.999998
5360000000000: Event_125: system.cpu progress event, total committed:10719977760, progress insts committed: 19999971, IPC: 0.999999
5370000000000: Event_125: system.cpu progress event, total committed:10739977730, progress insts committed: 19999970, IPC: 0.999999
5380000000000: Event_125: system.cpu progress event, total committed:10759977700, progress insts committed: 19999970, IPC: 0.999999
5390000000000: Event_125: system.cpu progress event, total committed:10779977665, progress insts committed: 19999965, IPC: 0.999998
5400000000000: Event_125: system.cpu progress event, total committed:10799977626, progress insts committed: 19999961, IPC: 0.999998
5410000000000: Event_125: system.cpu progress event, total committed:10819977601, progress insts committed: 19999975, IPC: 0.999999
5420000000000: Event_125: system.cpu progress event, total committed:10839977574, progress insts committed: 19999973, IPC: 0.999999
5430000000000: Event_125: system.cpu progress event, total committed:10859977547, progress insts committed: 19999973, IPC: 0.999999
5440000000000: Event_125: system.cpu progress event, total committed:10879977517, progress insts committed: 19999970, IPC: 0.999999
5450000000000: Event_125: system.cpu progress event, total committed:10899977484, progress insts committed: 19999967, IPC: 0.999998
5460000000000: Event_125: system.cpu progress event, total committed:10919977453, progress insts committed: 19999969, IPC: 0.999998
5470000000000: Event_125: system.cpu progress event, total committed:10939977425, progress insts committed: 19999972, IPC: 0.999999
5480000000000: Event_125: system.cpu progress event, total committed:10959977399, progress insts committed: 19999974, IPC: 0.999999
5490000000000: Event_125: system.cpu progress event, total committed:10979977366, progress insts committed: 19999967, IPC: 0.999998
5500000000000: Event_125: system.cpu progress event, total committed:10999977332, progress insts committed: 19999966, IPC: 0.999998
5510000000000: Event_125: system.cpu progress event, total committed:11019977300, progress insts committed: 19999968, IPC: 0.999998
5520000000000: Event_125: system.cpu progress event, total committed:11039977267, progress insts committed: 19999967, IPC: 0.999998
5530000000000: Event_125: system.cpu progress event, total committed:11059977237, progress insts committed: 19999970, IPC: 0.999999
5540000000000: Event_125: system.cpu progress event, total committed:11079977205, progress insts committed: 19999968, IPC: 0.999998
5550000000000: Event_125: system.cpu progress event, total committed:11099977172, progress insts committed: 19999967, IPC: 0.999998
5560000000000: Event_125: system.cpu progress event, total committed:11119977142, progress insts committed: 19999970, IPC: 0.999999
5570000000000: Event_125: system.cpu progress event, total committed:11139977111, progress insts committed: 19999969, IPC: 0.999998
5580000000000: Event_125: system.cpu progress event, total committed:11159977088, progress insts committed: 19999977, IPC: 0.999999
5590000000000: Event_125: system.cpu progress event, total committed:11179977052, progress insts committed: 19999964, IPC: 0.999998
5600000000000: Event_125: system.cpu progress event, total committed:11199977025, progress insts committed: 19999973, IPC: 0.999999
5610000000000: Event_125: system.cpu progress event, total committed:11219976995, progress insts committed: 19999970, IPC: 0.999999
5620000000000: Event_125: system.cpu progress event, total committed:11239976963, progress insts committed: 19999968, IPC: 0.999998
5630000000000: Event_125: system.cpu progress event, total committed:11259976944, progress insts committed: 19999981, IPC: 0.999999
5640000000000: Event_125: system.cpu progress event, total committed:11279976914, progress insts committed: 19999970, IPC: 0.999999
5650000000000: Event_125: system.cpu progress event, total committed:11299976881, progress insts committed: 19999967, IPC: 0.999998
5660000000000: Event_125: system.cpu progress event, total committed:11319976851, progress insts committed: 19999970, IPC: 0.999999
5670000000000: Event_125: system.cpu progress event, total committed:11339976821, progress insts committed: 19999970, IPC: 0.999999
5680000000000: Event_125: system.cpu progress event, total committed:11359976789, progress insts committed: 19999968, IPC: 0.999998
5690000000000: Event_125: system.cpu progress event, total committed:11379976756, progress insts committed: 19999967, IPC: 0.999998
5700000000000: Event_125: system.cpu progress event, total committed:11399976724, progress insts committed: 19999968, IPC: 0.999998
5710000000000: Event_125: system.cpu progress event, total committed:11419976694, progress insts committed: 19999970, IPC: 0.999999
warn: PowerState: Already in the requested power state, request ignored
warn: User mode does not have SPSR
warn: User mode does not have SPSR
Switched CPUS @ tick 5719041840500
switching cpus
**** REAL SIMULATION ****
info: Entering event queue @ 5719041840500.  Starting simulation...
5720000000000: Event_126: system.switch_cpus progress event, total committed:2536017, progress insts committed: 2536017, IPC: 0.126801
5730000000000: Event_126: system.switch_cpus progress event, total committed:29447516, progress insts committed: 26911499, IPC: 01.34557
5740000000000: Event_126: system.switch_cpus progress event, total committed:56416156, progress insts committed: 26968640, IPC: 01.34843
5750000000000: Event_126: system.switch_cpus progress event, total committed:83714338, progress insts committed: 27298182, IPC: 01.36491
5760000000000: Event_126: system.switch_cpus progress event, total committed:110451165, progress insts committed: 26736827, IPC: 01.33684
5770000000000: Event_126: system.switch_cpus progress event, total committed:137881972, progress insts committed: 27430807, IPC: 01.37154
5780000000000: Event_126: system.switch_cpus progress event, total committed:164740461, progress insts committed: 26858489, IPC: 01.34292
5790000000000: Event_126: system.switch_cpus progress event, total committed:191979470, progress insts committed: 27239009, IPC: 01.36195
5800000000000: Event_126: system.switch_cpus progress event, total committed:218087396, progress insts committed: 26107926, IPC: 001.3054
5810000000000: Event_126: system.switch_cpus progress event, total committed:244930484, progress insts committed: 26843088, IPC: 01.34215
5820000000000: Event_126: system.switch_cpus progress event, total committed:271968572, progress insts committed: 27038088, IPC: 001.3519
5830000000000: Event_126: system.switch_cpus progress event, total committed:298847608, progress insts committed: 26879036, IPC: 01.34395
5840000000000: Event_126: system.switch_cpus progress event, total committed:325828786, progress insts committed: 26981178, IPC: 01.34906
5850000000000: Event_126: system.switch_cpus progress event, total committed:352917831, progress insts committed: 27089045, IPC: 01.35445
5860000000000: Event_126: system.switch_cpus progress event, total committed:379475779, progress insts committed: 26557948, IPC: 001.3279
5870000000000: Event_126: system.switch_cpus progress event, total committed:406421323, progress insts committed: 26945544, IPC: 01.34728
5880000000000: Event_126: system.switch_cpus progress event, total committed:433346224, progress insts committed: 26924901, IPC: 01.34625
5890000000000: Event_126: system.switch_cpus progress event, total committed:460703672, progress insts committed: 27357448, IPC: 01.36787
5900000000000: Event_126: system.switch_cpus progress event, total committed:487382507, progress insts committed: 26678835, IPC: 01.33394
5910000000000: Event_126: system.switch_cpus progress event, total committed:514765718, progress insts committed: 27383211, IPC: 01.36916
5920000000000: Event_126: system.switch_cpus progress event, total committed:541882174, progress insts committed: 27116456, IPC: 01.35582
5930000000000: Event_126: system.switch_cpus progress event, total committed:568956952, progress insts committed: 27074778, IPC: 01.35374
5940000000000: Event_126: system.switch_cpus progress event, total committed:596032254, progress insts committed: 27075302, IPC: 01.35377
5950000000000: Event_126: system.switch_cpus progress event, total committed:622579518, progress insts committed: 26547264, IPC: 01.32736
5960000000000: Event_126: system.switch_cpus progress event, total committed:649409944, progress insts committed: 26830426, IPC: 01.34152
5970000000000: Event_126: system.switch_cpus progress event, total committed:675867907, progress insts committed: 26457963, IPC: 001.3229
5980000000000: Event_126: system.switch_cpus progress event, total committed:702981555, progress insts committed: 27113648, IPC: 01.35568
5990000000000: Event_126: system.switch_cpus progress event, total committed:729780956, progress insts committed: 26799401, IPC: 01.33997
6000000000000: Event_126: system.switch_cpus progress event, total committed:756729079, progress insts committed: 26948123, IPC: 01.34741
6010000000000: Event_126: system.switch_cpus progress event, total committed:783393547, progress insts committed: 26664468, IPC: 01.33322
6020000000000: Event_126: system.switch_cpus progress event, total committed:810699751, progress insts committed: 27306204, IPC: 01.36531
6030000000000: Event_126: system.switch_cpus progress event, total committed:837796188, progress insts committed: 27096437, IPC: 01.35482
6040000000000: Event_126: system.switch_cpus progress event, total committed:864523758, progress insts committed: 26727570, IPC: 01.33638
6050000000000: Event_126: system.switch_cpus progress event, total committed:891086709, progress insts committed: 26562951, IPC: 01.32815
6060000000000: Event_126: system.switch_cpus progress event, total committed:917821018, progress insts committed: 26734309, IPC: 01.33672
6070000000000: Event_126: system.switch_cpus progress event, total committed:945048124, progress insts committed: 27227106, IPC: 01.36136
6080000000000: Event_126: system.switch_cpus progress event, total committed:971610244, progress insts committed: 26562120, IPC: 01.32811
6090000000000: Event_126: system.switch_cpus progress event, total committed:998687823, progress insts committed: 27077579, IPC: 01.35388
6100000000000: Event_126: system.switch_cpus progress event, total committed:1025822658, progress insts committed: 27134835, IPC: 01.35674
6110000000000: Event_126: system.switch_cpus progress event, total committed:1052223908, progress insts committed: 26401250, IPC: 01.32006
6120000000000: Event_126: system.switch_cpus progress event, total committed:1078834337, progress insts committed: 26610429, IPC: 01.33052
6130000000000: Event_126: system.switch_cpus progress event, total committed:1105719995, progress insts committed: 26885658, IPC: 01.34428
6140000000000: Event_126: system.switch_cpus progress event, total committed:1132787630, progress insts committed: 27067635, IPC: 01.35338
6150000000000: Event_126: system.switch_cpus progress event, total committed:1158777827, progress insts committed: 25990197, IPC: 01.29951
6160000000000: Event_126: system.switch_cpus progress event, total committed:1185384936, progress insts committed: 26607109, IPC: 01.33036
6170000000000: Event_126: system.switch_cpus progress event, total committed:1212242225, progress insts committed: 26857289, IPC: 01.34286
6180000000000: Event_126: system.switch_cpus progress event, total committed:1238765506, progress insts committed: 26523281, IPC: 01.32616
6190000000000: Event_126: system.switch_cpus progress event, total committed:1265629419, progress insts committed: 26863913, IPC: 001.3432
6200000000000: Event_126: system.switch_cpus progress event, total committed:1292350037, progress insts committed: 26720618, IPC: 01.33603
6210000000000: Event_126: system.switch_cpus progress event, total committed:1319233078, progress insts committed: 26883041, IPC: 01.34415
6220000000000: Event_126: system.switch_cpus progress event, total committed:1346207903, progress insts committed: 26974825, IPC: 01.34874
6230000000000: Event_126: system.switch_cpus progress event, total committed:1372901872, progress insts committed: 26693969, IPC: 001.3347
6240000000000: Event_126: system.switch_cpus progress event, total committed:1399785313, progress insts committed: 26883441, IPC: 01.34417
6250000000000: Event_126: system.switch_cpus progress event, total committed:1426653252, progress insts committed: 26867939, IPC: 001.3434
6260000000000: Event_126: system.switch_cpus progress event, total committed:1453512441, progress insts committed: 26859189, IPC: 01.34296
6270000000000: Event_126: system.switch_cpus progress event, total committed:1480277362, progress insts committed: 26764921, IPC: 01.33825
6280000000000: Event_126: system.switch_cpus progress event, total committed:1507488083, progress insts committed: 27210721, IPC: 01.36054
6290000000000: Event_126: system.switch_cpus progress event, total committed:1534022397, progress insts committed: 26534314, IPC: 01.32672
6300000000000: Event_126: system.switch_cpus progress event, total committed:1560722427, progress insts committed: 26700030, IPC: 0001.335
6310000000000: Event_126: system.switch_cpus progress event, total committed:1587117871, progress insts committed: 26395444, IPC: 01.31977
6320000000000: Event_126: system.switch_cpus progress event, total committed:1613910619, progress insts committed: 26792748, IPC: 01.33964
6330000000000: Event_126: system.switch_cpus progress event, total committed:1640026185, progress insts committed: 26115566, IPC: 01.30578
6340000000000: Event_126: system.switch_cpus progress event, total committed:1667135957, progress insts committed: 27109772, IPC: 01.35549
6350000000000: Event_126: system.switch_cpus progress event, total committed:1693665515, progress insts committed: 26529558, IPC: 01.32648
6360000000000: Event_126: system.switch_cpus progress event, total committed:1720313899, progress insts committed: 26648384, IPC: 01.33242
6370000000000: Event_126: system.switch_cpus progress event, total committed:1746768198, progress insts committed: 26454299, IPC: 01.32271
6380000000000: Event_126: system.switch_cpus progress event, total committed:1773459050, progress insts committed: 26690852, IPC: 01.33454
6390000000000: Event_126: system.switch_cpus progress event, total committed:1800154396, progress insts committed: 26695346, IPC: 01.33477
6400000000000: Event_126: system.switch_cpus progress event, total committed:1826940846, progress insts committed: 26786450, IPC: 01.33932
6410000000000: Event_126: system.switch_cpus progress event, total committed:1853266260, progress insts committed: 26325414, IPC: 01.31627
6420000000000: Event_126: system.switch_cpus progress event, total committed:1879865933, progress insts committed: 26599673, IPC: 01.32998
6430000000000: Event_126: system.switch_cpus progress event, total committed:1906547986, progress insts committed: 26682053, IPC: 001.3341
6440000000000: Event_126: system.switch_cpus progress event, total committed:1933227932, progress insts committed: 26679946, IPC: 0001.334
6450000000000: Event_126: system.switch_cpus progress event, total committed:1960061296, progress insts committed: 26833364, IPC: 01.34167
6460000000000: Event_126: system.switch_cpus progress event, total committed:1986205748, progress insts committed: 26144452, IPC: 01.30722
6470000000000: Event_126: system.switch_cpus progress event, total committed:2012857784, progress insts committed: 26652036, IPC: 001.3326
6480000000000: Event_126: system.switch_cpus progress event, total committed:2039902863, progress insts committed: 27045079, IPC: 01.35225
6490000000000: Event_126: system.switch_cpus progress event, total committed:2066288760, progress insts committed: 26385897, IPC: 01.31929
6500000000000: Event_126: system.switch_cpus progress event, total committed:2092694210, progress insts committed: 26405450, IPC: 01.32027
6510000000000: Event_126: system.switch_cpus progress event, total committed:2119239710, progress insts committed: 26545500, IPC: 01.32727
6520000000000: Event_126: system.switch_cpus progress event, total committed:2145629566, progress insts committed: 26389856, IPC: 01.31949
6530000000000: Event_126: system.switch_cpus progress event, total committed:2172366543, progress insts committed: 26736977, IPC: 01.33685
6540000000000: Event_126: system.switch_cpus progress event, total committed:2198904460, progress insts committed: 26537917, IPC: 001.3269
6550000000000: Event_126: system.switch_cpus progress event, total committed:2225719257, progress insts committed: 26814797, IPC: 01.34074
6560000000000: Event_126: system.switch_cpus progress event, total committed:2252573726, progress insts committed: 26854469, IPC: 01.34272
Exiting @ tick 6565878158500 because a thread reached the max instruction count
