
---------- Begin Simulation Statistics ----------
final_tick                               6565878158500                       # Number of ticks from beginning of simulation (restored from checkpoints and never reset)
host_inst_rate                                 951142                       # Simulator instruction rate (inst/s)
host_mem_usage                               17046504                       # Number of bytes of host memory used
host_op_rate                                  1086391                       # Simulator op (including micro ops) rate (op/s)
host_seconds                                 12616.42                       # Real time elapsed on the host
host_tick_rate                               67121786                       # Simulator tick rate (ticks/s)
sim_freq                                 1000000000000                       # Frequency of simulated ticks
sim_insts                                 12000000007                       # Number of instructions simulated
sim_ops                                   13706363917                       # Number of ops (including micro ops) simulated
sim_seconds                                  0.846836                       # Number of seconds simulated
sim_ticks                                846836318000                       # Number of ticks simulated
system.cpu.committedInsts                           0                       # Number of instructions committed
system.cpu.committedOps                             0                       # Number of ops (including micro ops) committed
system.cpu.dcache.MSHRs.leapFrogMisses         182748                       # number of false blocks from MSHR
system.cpu.icache.MSHRs.leapFrogMisses              0                       # number of false blocks from MSHR
system.cpu.idle_fraction                            0                       # Percentage of idle cycles
system.cpu.not_idle_fraction                        1                       # Percentage of non-idle cycles
system.cpu.numCycles                                0                       # number of cpu cycles simulated
system.cpu.numWorkItemsCompleted                    0                       # number of work items this cpu completed
system.cpu.numWorkItemsStarted                      0                       # number of work items this cpu started
system.cpu.num_busy_cycles                          0                       # Number of busy cycles
system.cpu.num_conditional_control_insts            0                       # number of instructions that are conditional controls
system.cpu.num_fp_alu_accesses                      0                       # Number of float alu accesses
system.cpu.num_fp_insts                             0                       # number of float instructions
system.cpu.num_fp_register_reads                    0                       # number of times the floating registers were read
system.cpu.num_fp_register_writes                   0                       # number of times the floating registers were written
system.cpu.num_func_calls                           0                       # number of times a function call or return occured
system.cpu.num_idle_cycles                          0                       # Number of idle cycles
system.cpu.num_int_alu_accesses                     0                       # Number of integer alu accesses
system.cpu.num_int_insts                            0                       # number of integer instructions
system.cpu.num_int_register_reads                   0                       # number of times the integer registers were read
system.cpu.num_int_register_writes                  0                       # number of times the integer registers were written
system.cpu.num_load_insts                           0                       # Number of load instructions
system.cpu.num_mem_refs                             0                       # number of memory refs
system.cpu.num_store_insts                          0                       # Number of store instructions
system.cpu.num_vec_alu_accesses                     0                       # Number of vector alu accesses
system.cpu.num_vec_insts                            0                       # number of vector instructions
system.cpu.num_vec_register_reads                   0                       # number of times the vector registers were read
system.cpu.num_vec_register_writes                  0                       # number of times the vector registers were written
system.cpu.op_class::No_OpClass                     0                       # Class of executed instruction
system.cpu.op_class::IntAlu                         0                       # Class of executed instruction
system.cpu.op_class::IntMult                        0                       # Class of executed instruction
system.cpu.op_class::IntDiv                         0                       # Class of executed instruction
system.cpu.op_class::FloatAdd                       0                       # Class of executed instruction
system.cpu.op_class::FloatCmp                       0                       # Class of executed instruction
system.cpu.op_class::FloatCvt                       0                       # Class of executed instruction
system.cpu.op_class::FloatMult                      0                       # Class of executed instruction
system.cpu.op_class::FloatMultAcc                   0                       # Class of executed instruction
system.cpu.op_class::FloatDiv                       0                       # Class of executed instruction
system.cpu.op_class::FloatMisc                      0                       # Class of executed instruction
system.cpu.op_class::FloatSqrt                      0                       # Class of executed instruction
system.cpu.op_class::SimdAdd                        0                       # Class of executed instruction
system.cpu.op_class::SimdAddAcc                     0                       # Class of executed instruction
system.cpu.op_class::SimdAlu                        0                       # Class of executed instruction
system.cpu.op_class::SimdCmp                        0                       # Class of executed instruction
system.cpu.op_class::SimdCvt                        0                       # Class of executed instruction
system.cpu.op_class::SimdMisc                       0                       # Class of executed instruction
system.cpu.op_class::SimdMult                       0                       # Class of executed instruction
system.cpu.op_class::SimdMultAcc                    0                       # Class of executed instruction
system.cpu.op_class::SimdShift                      0                       # Class of executed instruction
system.cpu.op_class::SimdShiftAcc                   0                       # Class of executed instruction
system.cpu.op_class::SimdDiv                        0                       # Class of executed instruction
system.cpu.op_class::SimdSqrt                       0                       # Class of executed instruction
system.cpu.op_class::SimdFloatAdd                   0                       # Class of executed instruction
system.cpu.op_class::SimdFloatAlu                   0                       # Class of executed instruction
system.cpu.op_class::SimdFloatCmp                   0                       # Class of executed instruction
system.cpu.op_class::SimdFloatCvt                   0                       # Class of executed instruction
system.cpu.op_class::SimdFloatDiv                   0                       # Class of executed instruction
system.cpu.op_class::SimdFloatMisc                  0                       # Class of executed instruction
system.cpu.op_class::SimdFloatMult                  0                       # Class of executed instruction
system.cpu.op_class::SimdFloatMultAcc               0                       # Class of executed instruction
system.cpu.op_class::SimdFloatSqrt                  0                       # Class of executed instruction
system.cpu.op_class::SimdReduceAdd                  0                       # Class of executed instruction
system.cpu.op_class::SimdReduceAlu                  0                       # Class of executed instruction
system.cpu.op_class::SimdReduceCmp                  0                       # Class of executed instruction
system.cpu.op_class::SimdFloatReduceAdd             0                       # Class of executed instruction
system.cpu.op_class::SimdFloatReduceCmp             0                       # Class of executed instruction
system.cpu.op_class::SimdAes                        0                       # Class of executed instruction
system.cpu.op_class::SimdAesMix                     0                       # Class of executed instruction
system.cpu.op_class::SimdSha1Hash                   0                       # Class of executed instruction
system.cpu.op_class::SimdSha1Hash2                  0                       # Class of executed instruction
system.cpu.op_class::SimdSha256Hash                 0                       # Class of executed instruction
system.cpu.op_class::SimdSha256Hash2                0                       # Class of executed instruction
system.cpu.op_class::SimdShaSigma2                  0                       # Class of executed instruction
system.cpu.op_class::SimdShaSigma3                  0                       # Class of executed instruction
system.cpu.op_class::SimdPredAlu                    0                       # Class of executed instruction
system.cpu.op_class::MemRead                        0                       # Class of executed instruction
system.cpu.op_class::MemWrite                       0                       # Class of executed instruction
system.cpu.op_class::FloatMemRead                   0                       # Class of executed instruction
system.cpu.op_class::FloatMemWrite                  0                       # Class of executed instruction
system.cpu.op_class::IprAccess                      0                       # Class of executed instruction
system.cpu.op_class::InstPrefetch                   0                       # Class of executed instruction
system.cpu.op_class::total                          0                       # Class of executed instruction
system.cpu.workload.numSyscalls                   191                       # Number of system calls
system.l2.MSHRs.leapFrogMisses                      0                       # number of false blocks from MSHR
system.membus.snoop_filter.hit_multi_requests            0                       # Number of requests hitting in the snoop filter with multiple (>1) holders of the requested data.
system.membus.snoop_filter.hit_multi_snoops            0                       # Number of snoops hitting in the snoop filter with multiple (>1) holders of the requested data.
system.membus.snoop_filter.hit_single_requests       455722                       # Number of requests hitting in the snoop filter with a single holder of the requested data.
system.membus.snoop_filter.hit_single_snoops            0                       # Number of snoops hitting in the snoop filter with a single holder of the requested data.
system.membus.snoop_filter.tot_requests        911442                       # Total number of requests made to the snoop filter.
system.membus.snoop_filter.tot_snoops               0                       # Total number of snoops made to the snoop filter.
system.switch_cpus.cc_regfile_reads         737437116                       # number of cc regfile reads
system.switch_cpus.cc_regfile_writes        741334851                       # number of cc regfile writes
system.switch_cpus.committedInsts          2000000006                       # Number of Instructions Simulated
system.switch_cpus.committedOps            2268303567                       # Number of Ops (including micro ops) Simulated
system.switch_cpus.cpi                       0.846837                       # CPI: Cycles Per Instruction
system.switch_cpus.cpi_total                 0.846837                       # CPI: Total CPI of All Threads
system.switch_cpus.idleCycles                23667589                       # Total number of cycles that the CPU has spent unscheduled due to idling
system.switch_cpus.iew.branchMispredicts      7102058                       # Number of branch mispredicts detected at execute
system.switch_cpus.iew.exec_branches        633670828                       # Number of branches executed
system.switch_cpus.iew.exec_nop              29522410                       # number of nop insts executed
system.switch_cpus.iew.exec_rate             1.412158                       # Inst execution rate
system.switch_cpus.iew.exec_refs            790028724                       # number of memory reference insts executed
system.switch_cpus.iew.exec_stores           98297300                       # Number of stores executed
system.switch_cpus.iew.exec_swp                     0                       # number of swp insts executed
system.switch_cpus.iew.iewBlockCycles        56548798                       # Number of cycles IEW is blocking
system.switch_cpus.iew.iewDispLoadInsts     676651384                       # Number of dispatched load instructions
system.switch_cpus.iew.iewDispNonSpecInsts         3974                       # Number of dispatched non-speculative instructions
system.switch_cpus.iew.iewDispSquashedInsts      1489859                       # Number of squashed instructions skipped by dispatch
system.switch_cpus.iew.iewDispStoreInsts    100680794                       # Number of dispatched store instructions
system.switch_cpus.iew.iewDispatchedInsts   2434907595                       # Number of instructions dispatched to IQ
system.switch_cpus.iew.iewExecLoadInsts     691731424                       # Number of load instructions executed
system.switch_cpus.iew.iewExecSquashedInsts      7355906                       # Number of squashed instructions skipped in execute
system.switch_cpus.iew.iewExecutedInsts    2391736502                       # Number of executed instructions
system.switch_cpus.iew.iewIQFullEvents        7099041                       # Number of times the IQ has become full, causing a stall
system.switch_cpus.iew.iewIdleCycles                0                       # Number of cycles IEW is idle
system.switch_cpus.iew.iewLSQFullEvents     184616849                       # Number of times the LSQ has become full, causing a stall
system.switch_cpus.iew.iewSquashCycles        5860468                       # Number of cycles IEW is squashing
system.switch_cpus.iew.iewUnblockCycles     193027921                       # Number of cycles IEW is unblocking
system.switch_cpus.iew.memOrderViolationEvents        46966                       # Number of memory order violations
system.switch_cpus.iew.predictedNotTakenIncorrect      2573545                       # Number of branches that were predicted not taken incorrectly
system.switch_cpus.iew.predictedTakenIncorrect      4528513                       # Number of branches that were predicted taken incorrectly
system.switch_cpus.iew.wb_consumers        2437440144                       # num instructions consuming a value
system.switch_cpus.iew.wb_count            2359860850                       # cumulative count of insts written-back
system.switch_cpus.iew.wb_fanout             0.566079                       # average fanout of values written-back
system.switch_cpus.iew.wb_producers        1379784574                       # num instructions producing a value
system.switch_cpus.iew.wb_rate               1.393338                       # insts written-back per cycle
system.switch_cpus.iew.wb_sent             2361586567                       # cumulative count of insts sent to commit
system.switch_cpus.int_regfile_reads       2743153752                       # number of integer regfile reads
system.switch_cpus.int_regfile_writes      1668728545                       # number of integer regfile writes
system.switch_cpus.ipc                       1.180864                       # IPC: Instructions Per Cycle
system.switch_cpus.ipc_total                 1.180864                       # IPC: Total IPC of All Threads
system.switch_cpus.iq.FU_type_0::No_OpClass         2250      0.00%      0.00% # Type of FU issued
system.switch_cpus.iq.FU_type_0::IntAlu    1601394808     66.75%     66.75% # Type of FU issued
system.switch_cpus.iq.FU_type_0::IntMult      3147340      0.13%     66.88% # Type of FU issued
system.switch_cpus.iq.FU_type_0::IntDiv        278280      0.01%     66.89% # Type of FU issued
system.switch_cpus.iq.FU_type_0::FloatAdd            0      0.00%     66.89% # Type of FU issued
system.switch_cpus.iq.FU_type_0::FloatCmp            0      0.00%     66.89% # Type of FU issued
system.switch_cpus.iq.FU_type_0::FloatCvt          915      0.00%     66.89% # Type of FU issued
system.switch_cpus.iq.FU_type_0::FloatMult          701      0.00%     66.89% # Type of FU issued
system.switch_cpus.iq.FU_type_0::FloatMultAcc            0      0.00%     66.89% # Type of FU issued
system.switch_cpus.iq.FU_type_0::FloatDiv            0      0.00%     66.89% # Type of FU issued
system.switch_cpus.iq.FU_type_0::FloatMisc       472550      0.02%     66.91% # Type of FU issued
system.switch_cpus.iq.FU_type_0::FloatSqrt            0      0.00%     66.91% # Type of FU issued
system.switch_cpus.iq.FU_type_0::SimdAdd            0      0.00%     66.91% # Type of FU issued
system.switch_cpus.iq.FU_type_0::SimdAddAcc            0      0.00%     66.91% # Type of FU issued
system.switch_cpus.iq.FU_type_0::SimdAlu       184512      0.01%     66.92% # Type of FU issued
system.switch_cpus.iq.FU_type_0::SimdCmp       308748      0.01%     66.93% # Type of FU issued
system.switch_cpus.iq.FU_type_0::SimdCvt            0      0.00%     66.93% # Type of FU issued
system.switch_cpus.iq.FU_type_0::SimdMisc        94142      0.00%     66.94% # Type of FU issued
system.switch_cpus.iq.FU_type_0::SimdMult            0      0.00%     66.94% # Type of FU issued
system.switch_cpus.iq.FU_type_0::SimdMultAcc            0      0.00%     66.94% # Type of FU issued
system.switch_cpus.iq.FU_type_0::SimdShift            0      0.00%     66.94% # Type of FU issued
system.switch_cpus.iq.FU_type_0::SimdShiftAcc            0      0.00%     66.94% # Type of FU issued
system.switch_cpus.iq.FU_type_0::SimdDiv            0      0.00%     66.94% # Type of FU issued
system.switch_cpus.iq.FU_type_0::SimdSqrt            0      0.00%     66.94% # Type of FU issued
system.switch_cpus.iq.FU_type_0::SimdFloatAdd            0      0.00%     66.94% # Type of FU issued
system.switch_cpus.iq.FU_type_0::SimdFloatAlu            0      0.00%     66.94% # Type of FU issued
system.switch_cpus.iq.FU_type_0::SimdFloatCmp            0      0.00%     66.94% # Type of FU issued
system.switch_cpus.iq.FU_type_0::SimdFloatCvt            0      0.00%     66.94% # Type of FU issued
system.switch_cpus.iq.FU_type_0::SimdFloatDiv            0      0.00%     66.94% # Type of FU issued
system.switch_cpus.iq.FU_type_0::SimdFloatMisc            0      0.00%     66.94% # Type of FU issued
system.switch_cpus.iq.FU_type_0::SimdFloatMult            0      0.00%     66.94% # Type of FU issued
system.switch_cpus.iq.FU_type_0::SimdFloatMultAcc            0      0.00%     66.94% # Type of FU issued
system.switch_cpus.iq.FU_type_0::SimdFloatSqrt            0      0.00%     66.94% # Type of FU issued
system.switch_cpus.iq.FU_type_0::SimdReduceAdd            0      0.00%     66.94% # Type of FU issued
system.switch_cpus.iq.FU_type_0::SimdReduceAlu            0      0.00%     66.94% # Type of FU issued
system.switch_cpus.iq.FU_type_0::SimdReduceCmp            0      0.00%     66.94% # Type of FU issued
system.switch_cpus.iq.FU_type_0::SimdFloatReduceAdd            0      0.00%     66.94% # Type of FU issued
system.switch_cpus.iq.FU_type_0::SimdFloatReduceCmp            0      0.00%     66.94% # Type of FU issued
system.switch_cpus.iq.FU_type_0::SimdAes            0      0.00%     66.94% # Type of FU issued
system.switch_cpus.iq.FU_type_0::SimdAesMix            0      0.00%     66.94% # Type of FU issued
system.switch_cpus.iq.FU_type_0::SimdSha1Hash            0      0.00%     66.94% # Type of FU issued
system.switch_cpus.iq.FU_type_0::SimdSha1Hash2            0      0.00%     66.94% # Type of FU issued
system.switch_cpus.iq.FU_type_0::SimdSha256Hash            0      0.00%     66.94% # Type of FU issued
system.switch_cpus.iq.FU_type_0::SimdSha256Hash2            0      0.00%     66.94% # Type of FU issued
system.switch_cpus.iq.FU_type_0::SimdShaSigma2            0      0.00%     66.94% # Type of FU issued
system.switch_cpus.iq.FU_type_0::SimdShaSigma3            0      0.00%     66.94% # Type of FU issued
system.switch_cpus.iq.FU_type_0::SimdPredAlu            0      0.00%     66.94% # Type of FU issued
system.switch_cpus.iq.FU_type_0::MemRead    694385890     28.94%     95.88% # Type of FU issued
system.switch_cpus.iq.FU_type_0::MemWrite     98822273      4.12%    100.00% # Type of FU issued
system.switch_cpus.iq.FU_type_0::FloatMemRead            0      0.00%    100.00% # Type of FU issued
system.switch_cpus.iq.FU_type_0::FloatMemWrite            0      0.00%    100.00% # Type of FU issued
system.switch_cpus.iq.FU_type_0::IprAccess            0      0.00%    100.00% # Type of FU issued
system.switch_cpus.iq.FU_type_0::InstPrefetch            0      0.00%    100.00% # Type of FU issued
system.switch_cpus.iq.FU_type_0::total     2399092409                       # Type of FU issued
system.switch_cpus.iq.fp_alu_accesses               0                       # Number of floating point alu accesses
system.switch_cpus.iq.fp_inst_queue_reads            0                       # Number of floating instruction queue reads
system.switch_cpus.iq.fp_inst_queue_wakeup_accesses            0                       # Number of floating instruction queue wakeup accesses
system.switch_cpus.iq.fp_inst_queue_writes            0                       # Number of floating instruction queue writes
system.switch_cpus.iq.fu_busy_cnt            29957592                       # FU busy when requested
system.switch_cpus.iq.fu_busy_rate           0.012487                       # FU busy rate (busy events/executed inst)
system.switch_cpus.iq.fu_full::No_OpClass            0      0.00%      0.00% # attempts to use FU when none available
system.switch_cpus.iq.fu_full::IntAlu        19857367     66.28%     66.28% # attempts to use FU when none available
system.switch_cpus.iq.fu_full::IntMult             19      0.00%     66.28% # attempts to use FU when none available
system.switch_cpus.iq.fu_full::IntDiv               0      0.00%     66.28% # attempts to use FU when none available
system.switch_cpus.iq.fu_full::FloatAdd             0      0.00%     66.28% # attempts to use FU when none available
system.switch_cpus.iq.fu_full::FloatCmp             0      0.00%     66.28% # attempts to use FU when none available
system.switch_cpus.iq.fu_full::FloatCvt             0      0.00%     66.28% # attempts to use FU when none available
system.switch_cpus.iq.fu_full::FloatMult            0      0.00%     66.28% # attempts to use FU when none available
system.switch_cpus.iq.fu_full::FloatMultAcc            0      0.00%     66.28% # attempts to use FU when none available
system.switch_cpus.iq.fu_full::FloatDiv             0      0.00%     66.28% # attempts to use FU when none available
system.switch_cpus.iq.fu_full::FloatMisc            0      0.00%     66.28% # attempts to use FU when none available
system.switch_cpus.iq.fu_full::FloatSqrt            0      0.00%     66.28% # attempts to use FU when none available
system.switch_cpus.iq.fu_full::SimdAdd              0      0.00%     66.28% # attempts to use FU when none available
system.switch_cpus.iq.fu_full::SimdAddAcc            0      0.00%     66.28% # attempts to use FU when none available
system.switch_cpus.iq.fu_full::SimdAlu              0      0.00%     66.28% # attempts to use FU when none available
system.switch_cpus.iq.fu_full::SimdCmp              0      0.00%     66.28% # attempts to use FU when none available
system.switch_cpus.iq.fu_full::SimdCvt              0      0.00%     66.28% # attempts to use FU when none available
system.switch_cpus.iq.fu_full::SimdMisc             0      0.00%     66.28% # attempts to use FU when none available
system.switch_cpus.iq.fu_full::SimdMult             0      0.00%     66.28% # attempts to use FU when none available
system.switch_cpus.iq.fu_full::SimdMultAcc            0      0.00%     66.28% # attempts to use FU when none available
system.switch_cpus.iq.fu_full::SimdShift            0      0.00%     66.28% # attempts to use FU when none available
system.switch_cpus.iq.fu_full::SimdShiftAcc            0      0.00%     66.28% # attempts to use FU when none available
system.switch_cpus.iq.fu_full::SimdDiv              0      0.00%     66.28% # attempts to use FU when none available
system.switch_cpus.iq.fu_full::SimdSqrt             0      0.00%     66.28% # attempts to use FU when none available
system.switch_cpus.iq.fu_full::SimdFloatAdd            0      0.00%     66.28% # attempts to use FU when none available
system.switch_cpus.iq.fu_full::SimdFloatAlu            0      0.00%     66.28% # attempts to use FU when none available
system.switch_cpus.iq.fu_full::SimdFloatCmp            0      0.00%     66.28% # attempts to use FU when none available
system.switch_cpus.iq.fu_full::SimdFloatCvt            0      0.00%     66.28% # attempts to use FU when none available
system.switch_cpus.iq.fu_full::SimdFloatDiv            0      0.00%     66.28% # attempts to use FU when none available
system.switch_cpus.iq.fu_full::SimdFloatMisc            0      0.00%     66.28% # attempts to use FU when none available
system.switch_cpus.iq.fu_full::SimdFloatMult            0      0.00%     66.28% # attempts to use FU when none available
system.switch_cpus.iq.fu_full::SimdFloatMultAcc            0      0.00%     66.28% # attempts to use FU when none available
system.switch_cpus.iq.fu_full::SimdFloatSqrt            0      0.00%     66.28% # attempts to use FU when none available
system.switch_cpus.iq.fu_full::SimdReduceAdd            0      0.00%     66.28% # attempts to use FU when none available
system.switch_cpus.iq.fu_full::SimdReduceAlu            0      0.00%     66.28% # attempts to use FU when none available
system.switch_cpus.iq.fu_full::SimdReduceCmp            0      0.00%     66.28% # attempts to use FU when none available
system.switch_cpus.iq.fu_full::SimdFloatReduceAdd            0      0.00%     66.28% # attempts to use FU when none available
system.switch_cpus.iq.fu_full::SimdFloatReduceCmp            0      0.00%     66.28% # attempts to use FU when none available
system.switch_cpus.iq.fu_full::SimdAes              0      0.00%     66.28% # attempts to use FU when none available
system.switch_cpus.iq.fu_full::SimdAesMix            0      0.00%     66.28% # attempts to use FU when none available
system.switch_cpus.iq.fu_full::SimdSha1Hash            0      0.00%     66.28% # attempts to use FU when none available
system.switch_cpus.iq.fu_full::SimdSha1Hash2            0      0.00%     66.28% # attempts to use FU when none available
system.switch_cpus.iq.fu_full::SimdSha256Hash            0      0.00%     66.28% # attempts to use FU when none available
system.switch_cpus.iq.fu_full::SimdSha256Hash2            0      0.00%     66.28% # attempts to use FU when none available
system.switch_cpus.iq.fu_full::SimdShaSigma2            0      0.00%     66.28% # attempts to use FU when none available
system.switch_cpus.iq.fu_full::SimdShaSigma3            0      0.00%     66.28% # attempts to use FU when none available
system.switch_cpus.iq.fu_full::SimdPredAlu            0      0.00%     66.28% # attempts to use FU when none available
system.switch_cpus.iq.fu_full::MemRead        6094995     20.35%     86.63% # attempts to use FU when none available
system.switch_cpus.iq.fu_full::MemWrite       4005211     13.37%    100.00% # attempts to use FU when none available
system.switch_cpus.iq.fu_full::FloatMemRead            0      0.00%    100.00% # attempts to use FU when none available
system.switch_cpus.iq.fu_full::FloatMemWrite            0      0.00%    100.00% # attempts to use FU when none available
system.switch_cpus.iq.fu_full::IprAccess            0      0.00%    100.00% # attempts to use FU when none available
system.switch_cpus.iq.fu_full::InstPrefetch            0      0.00%    100.00% # attempts to use FU when none available
system.switch_cpus.iq.int_alu_accesses     2420929270                       # Number of integer alu accesses
system.switch_cpus.iq.int_inst_queue_reads   6482880904                       # Number of integer instruction queue reads
system.switch_cpus.iq.int_inst_queue_wakeup_accesses   2352697371                       # Number of integer instruction queue wakeup accesses
system.switch_cpus.iq.int_inst_queue_writes   2533693897                       # Number of integer instruction queue writes
system.switch_cpus.iq.iqInstsAdded         2405381211                       # Number of instructions added to the IQ (excludes non-spec)
system.switch_cpus.iq.iqInstsIssued        2399092409                       # Number of instructions issued
system.switch_cpus.iq.iqNonSpecInstsAdded         3974                       # Number of non-speculative instructions added to the IQ
system.switch_cpus.iq.iqSquashedInstsExamined    137081558                       # Number of squashed instructions iterated over during squash; mainly for profiling
system.switch_cpus.iq.iqSquashedInstsIssued       367648                       # Number of squashed instructions issued
system.switch_cpus.iq.iqSquashedNonSpecRemoved         1631                       # Number of squashed non-spec instructions that were removed
system.switch_cpus.iq.iqSquashedOperandsExamined     71582573                       # Number of squashed operands that are examined and possibly removed from graph
system.switch_cpus.iq.issued_per_cycle::samples   1670007278                       # Number of insts issued each cycle
system.switch_cpus.iq.issued_per_cycle::mean     1.436576                       # Number of insts issued each cycle
system.switch_cpus.iq.issued_per_cycle::stdev     1.917577                       # Number of insts issued each cycle
system.switch_cpus.iq.issued_per_cycle::underflows            0      0.00%      0.00% # Number of insts issued each cycle
system.switch_cpus.iq.issued_per_cycle::0    818126346     48.99%     48.99% # Number of insts issued each cycle
system.switch_cpus.iq.issued_per_cycle::1    250021476     14.97%     63.96% # Number of insts issued each cycle
system.switch_cpus.iq.issued_per_cycle::2    206193008     12.35%     76.31% # Number of insts issued each cycle
system.switch_cpus.iq.issued_per_cycle::3    156841751      9.39%     85.70% # Number of insts issued each cycle
system.switch_cpus.iq.issued_per_cycle::4     88246743      5.28%     90.98% # Number of insts issued each cycle
system.switch_cpus.iq.issued_per_cycle::5     52874916      3.17%     94.15% # Number of insts issued each cycle
system.switch_cpus.iq.issued_per_cycle::6     53237812      3.19%     97.34% # Number of insts issued each cycle
system.switch_cpus.iq.issued_per_cycle::7     26350568      1.58%     98.92% # Number of insts issued each cycle
system.switch_cpus.iq.issued_per_cycle::8     18114658      1.08%    100.00% # Number of insts issued each cycle
system.switch_cpus.iq.issued_per_cycle::overflows            0      0.00%    100.00% # Number of insts issued each cycle
system.switch_cpus.iq.issued_per_cycle::min_value            0                       # Number of insts issued each cycle
system.switch_cpus.iq.issued_per_cycle::max_value            8                       # Number of insts issued each cycle
system.switch_cpus.iq.issued_per_cycle::total   1670007278                       # Number of insts issued each cycle
system.switch_cpus.iq.rate                   1.416501                       # Inst issue rate
system.switch_cpus.iq.vec_alu_accesses        8118481                       # Number of vector alu accesses
system.switch_cpus.iq.vec_inst_queue_reads     15636431                       # Number of vector instruction queue reads
system.switch_cpus.iq.vec_inst_queue_wakeup_accesses      7163479                       # Number of vector instruction queue wakeup accesses
system.switch_cpus.iq.vec_inst_queue_writes      8818913                       # Number of vector instruction queue writes
system.switch_cpus.memDep0.conflictingLoads      2176250                       # Number of conflicting loads.
system.switch_cpus.memDep0.conflictingStores      6074069                       # Number of conflicting stores.
system.switch_cpus.memDep0.insertedLoads    676651384                       # Number of loads inserted to the mem dependence unit.
system.switch_cpus.memDep0.insertedStores    100680794                       # Number of stores inserted to the mem dependence unit.
system.switch_cpus.misc_regfile_reads      6139673139                       # number of misc regfile reads
system.switch_cpus.misc_regfile_writes           2329                       # number of misc regfile writes
system.switch_cpus.numCycles               1693674867                       # number of cpu cycles simulated
system.switch_cpus.numWorkItemsCompleted            0                       # number of work items this cpu completed
system.switch_cpus.numWorkItemsStarted              0                       # number of work items this cpu started
system.switch_cpus.pred_regfile_reads          813028                       # number of predicate regfile reads
system.switch_cpus.pred_regfile_writes         306974                       # number of predicate regfile writes
system.switch_cpus.timesIdled                 6274801                       # Number of times that the entire CPU went into an idle state and unscheduled itself
system.switch_cpus.vec_regfile_reads          4487348                       # number of vector regfile reads
system.switch_cpus.vec_regfile_writes         2699071                       # number of vector regfile writes
system.tol2bus.snoop_filter.hit_multi_requests        14704                       # Number of requests hitting in the snoop filter with multiple (>1) holders of the requested data.
system.tol2bus.snoop_filter.hit_multi_snoops            0                       # Number of snoops hitting in the snoop filter with multiple (>1) holders of the requested data.
system.tol2bus.snoop_filter.hit_single_requests     76395520                       # Number of requests hitting in the snoop filter with a single holder of the requested data.
system.tol2bus.snoop_filter.hit_single_snoops         1588                       # Number of snoops hitting in the snoop filter with a single holder of the requested data.
system.tol2bus.snoop_filter.tot_requests    152791392                       # Total number of requests made to the snoop filter.
system.tol2bus.snoop_filter.tot_snoops           1588                       # Total number of snoops made to the snoop filter.
system.clk_domain.clock                          1000                       # Clock period in ticks
system.cpu.dcache.demand_hits::.switch_cpus.data    556422729                       # number of demand (read+write) hits
system.cpu.dcache.demand_hits::total        556422729                       # number of demand (read+write) hits
system.cpu.dcache.overall_hits::.switch_cpus.data    556422729                       # number of overall hits
system.cpu.dcache.overall_hits::total       556422729                       # number of overall hits
system.cpu.dcache.demand_misses::.switch_cpus.data    200326948                       # number of demand (read+write) misses
system.cpu.dcache.demand_misses::total      200326948                       # number of demand (read+write) misses
system.cpu.dcache.overall_misses::.switch_cpus.data    200326948                       # number of overall misses
system.cpu.dcache.overall_misses::total     200326948                       # number of overall misses
system.cpu.dcache.demand_miss_latency::.switch_cpus.data 2591572607920                       # number of demand (read+write) miss cycles
system.cpu.dcache.demand_miss_latency::total 2591572607920                       # number of demand (read+write) miss cycles
system.cpu.dcache.overall_miss_latency::.switch_cpus.data 2591572607920                       # number of overall miss cycles
system.cpu.dcache.overall_miss_latency::total 2591572607920                       # number of overall miss cycles
system.cpu.dcache.demand_accesses::.switch_cpus.data    756749677                       # number of demand (read+write) accesses
system.cpu.dcache.demand_accesses::total    756749677                       # number of demand (read+write) accesses
system.cpu.dcache.overall_accesses::.switch_cpus.data    756749677                       # number of overall (read+write) accesses
system.cpu.dcache.overall_accesses::total    756749677                       # number of overall (read+write) accesses
system.cpu.dcache.demand_miss_rate::.switch_cpus.data     0.264720                       # miss rate for demand accesses
system.cpu.dcache.demand_miss_rate::total     0.264720                       # miss rate for demand accesses
system.cpu.dcache.overall_miss_rate::.switch_cpus.data     0.264720                       # miss rate for overall accesses
system.cpu.dcache.overall_miss_rate::total     0.264720                       # miss rate for overall accesses
system.cpu.dcache.demand_avg_miss_latency::.switch_cpus.data 12936.714874                       # average overall miss latency
system.cpu.dcache.demand_avg_miss_latency::total 12936.714874                       # average overall miss latency
system.cpu.dcache.overall_avg_miss_latency::.switch_cpus.data 12936.714874                       # average overall miss latency
system.cpu.dcache.overall_avg_miss_latency::total 12936.714874                       # average overall miss latency
system.cpu.dcache.blocked_cycles::no_mshrs     82026121                       # number of cycles access was blocked
system.cpu.dcache.blocked_cycles::no_targets       280227                       # number of cycles access was blocked
system.cpu.dcache.blocked::no_mshrs           4680372                       # number of cycles access was blocked
system.cpu.dcache.blocked::no_targets           79426                       # number of cycles access was blocked
system.cpu.dcache.avg_blocked_cycles::no_mshrs    17.525556                       # average number of cycles each access was blocked
system.cpu.dcache.avg_blocked_cycles::no_targets     3.528152                       # average number of cycles each access was blocked
system.cpu.dcache.ghost_timestamp_misses            0                       # number of times timestamp policy causes a block to be inaccessible
system.cpu.dcache.ghost_commits                     0                       # number of cache lines moved from ghost to main
system.cpu.dcache.same_leapfrogs                    0                       # number of times leapfrogging occurs with a shared MSHR request
system.cpu.dcache.writebacks::.writebacks     66810337                       # number of writebacks
system.cpu.dcache.writebacks::total          66810337                       # number of writebacks
system.cpu.dcache.demand_mshr_hits::.switch_cpus.data    133516437                       # number of demand (read+write) MSHR hits
system.cpu.dcache.demand_mshr_hits::total    133516437                       # number of demand (read+write) MSHR hits
system.cpu.dcache.overall_mshr_hits::.switch_cpus.data    133516437                       # number of overall MSHR hits
system.cpu.dcache.overall_mshr_hits::total    133516437                       # number of overall MSHR hits
system.cpu.dcache.demand_mshr_misses::.switch_cpus.data     66810511                       # number of demand (read+write) MSHR misses
system.cpu.dcache.demand_mshr_misses::total     66810511                       # number of demand (read+write) MSHR misses
system.cpu.dcache.overall_mshr_misses::.switch_cpus.data     66810511                       # number of overall MSHR misses
system.cpu.dcache.overall_mshr_misses::total     66810511                       # number of overall MSHR misses
system.cpu.dcache.demand_mshr_miss_latency::.switch_cpus.data 866308627068                       # number of demand (read+write) MSHR miss cycles
system.cpu.dcache.demand_mshr_miss_latency::total 866308627068                       # number of demand (read+write) MSHR miss cycles
system.cpu.dcache.overall_mshr_miss_latency::.switch_cpus.data 866308627068                       # number of overall MSHR miss cycles
system.cpu.dcache.overall_mshr_miss_latency::total 866308627068                       # number of overall MSHR miss cycles
system.cpu.dcache.demand_mshr_miss_rate::.switch_cpus.data     0.088286                       # mshr miss rate for demand accesses
system.cpu.dcache.demand_mshr_miss_rate::total     0.088286                       # mshr miss rate for demand accesses
system.cpu.dcache.overall_mshr_miss_rate::.switch_cpus.data     0.088286                       # mshr miss rate for overall accesses
system.cpu.dcache.overall_mshr_miss_rate::total     0.088286                       # mshr miss rate for overall accesses
system.cpu.dcache.demand_avg_mshr_miss_latency::.switch_cpus.data 12966.651715                       # average overall mshr miss latency
system.cpu.dcache.demand_avg_mshr_miss_latency::total 12966.651715                       # average overall mshr miss latency
system.cpu.dcache.overall_avg_mshr_miss_latency::.switch_cpus.data 12966.651715                       # average overall mshr miss latency
system.cpu.dcache.overall_avg_mshr_miss_latency::total 12966.651715                       # average overall mshr miss latency
system.cpu.dcache.replacements               66810337                       # number of replacements
system.cpu.dcache.ReadReq_hits::.switch_cpus.data    468873225                       # number of ReadReq hits
system.cpu.dcache.ReadReq_hits::total       468873225                       # number of ReadReq hits
system.cpu.dcache.ReadReq_misses::.switch_cpus.data    194672776                       # number of ReadReq misses
system.cpu.dcache.ReadReq_misses::total     194672776                       # number of ReadReq misses
system.cpu.dcache.ReadReq_miss_latency::.switch_cpus.data 2477964167500                       # number of ReadReq miss cycles
system.cpu.dcache.ReadReq_miss_latency::total 2477964167500                       # number of ReadReq miss cycles
system.cpu.dcache.ReadReq_accesses::.switch_cpus.data    663546001                       # number of ReadReq accesses(hits+misses)
system.cpu.dcache.ReadReq_accesses::total    663546001                       # number of ReadReq accesses(hits+misses)
system.cpu.dcache.ReadReq_miss_rate::.switch_cpus.data     0.293382                       # miss rate for ReadReq accesses
system.cpu.dcache.ReadReq_miss_rate::total     0.293382                       # miss rate for ReadReq accesses
system.cpu.dcache.ReadReq_avg_miss_latency::.switch_cpus.data 12728.868507                       # average ReadReq miss latency
system.cpu.dcache.ReadReq_avg_miss_latency::total 12728.868507                       # average ReadReq miss latency
system.cpu.dcache.ReadReq_mshr_hits::.switch_cpus.data    129041869                       # number of ReadReq MSHR hits
system.cpu.dcache.ReadReq_mshr_hits::total    129041869                       # number of ReadReq MSHR hits
system.cpu.dcache.ReadReq_mshr_misses::.switch_cpus.data     65630907                       # number of ReadReq MSHR misses
system.cpu.dcache.ReadReq_mshr_misses::total     65630907                       # number of ReadReq MSHR misses
system.cpu.dcache.ReadReq_mshr_miss_latency::.switch_cpus.data 842054278500                       # number of ReadReq MSHR miss cycles
system.cpu.dcache.ReadReq_mshr_miss_latency::total 842054278500                       # number of ReadReq MSHR miss cycles
system.cpu.dcache.ReadReq_mshr_miss_rate::.switch_cpus.data     0.098909                       # mshr miss rate for ReadReq accesses
system.cpu.dcache.ReadReq_mshr_miss_rate::total     0.098909                       # mshr miss rate for ReadReq accesses
system.cpu.dcache.ReadReq_avg_mshr_miss_latency::.switch_cpus.data 12830.148431                       # average ReadReq mshr miss latency
system.cpu.dcache.ReadReq_avg_mshr_miss_latency::total 12830.148431                       # average ReadReq mshr miss latency
system.cpu.dcache.WriteReq_hits::.switch_cpus.data     87549504                       # number of WriteReq hits
system.cpu.dcache.WriteReq_hits::total       87549504                       # number of WriteReq hits
system.cpu.dcache.WriteReq_misses::.switch_cpus.data      5651819                       # number of WriteReq misses
system.cpu.dcache.WriteReq_misses::total      5651819                       # number of WriteReq misses
system.cpu.dcache.WriteReq_miss_latency::.switch_cpus.data 113531344357                       # number of WriteReq miss cycles
system.cpu.dcache.WriteReq_miss_latency::total 113531344357                       # number of WriteReq miss cycles
system.cpu.dcache.WriteReq_accesses::.switch_cpus.data     93201323                       # number of WriteReq accesses(hits+misses)
system.cpu.dcache.WriteReq_accesses::total     93201323                       # number of WriteReq accesses(hits+misses)
system.cpu.dcache.WriteReq_miss_rate::.switch_cpus.data     0.060641                       # miss rate for WriteReq accesses
system.cpu.dcache.WriteReq_miss_rate::total     0.060641                       # miss rate for WriteReq accesses
system.cpu.dcache.WriteReq_avg_miss_latency::.switch_cpus.data 20087.576116                       # average WriteReq miss latency
system.cpu.dcache.WriteReq_avg_miss_latency::total 20087.576116                       # average WriteReq miss latency
system.cpu.dcache.WriteReq_mshr_hits::.switch_cpus.data      4474568                       # number of WriteReq MSHR hits
system.cpu.dcache.WriteReq_mshr_hits::total      4474568                       # number of WriteReq MSHR hits
system.cpu.dcache.WriteReq_mshr_misses::.switch_cpus.data      1177251                       # number of WriteReq MSHR misses
system.cpu.dcache.WriteReq_mshr_misses::total      1177251                       # number of WriteReq MSHR misses
system.cpu.dcache.WriteReq_mshr_miss_latency::.switch_cpus.data  24179605505                       # number of WriteReq MSHR miss cycles
system.cpu.dcache.WriteReq_mshr_miss_latency::total  24179605505                       # number of WriteReq MSHR miss cycles
system.cpu.dcache.WriteReq_mshr_miss_rate::.switch_cpus.data     0.012631                       # mshr miss rate for WriteReq accesses
system.cpu.dcache.WriteReq_mshr_miss_rate::total     0.012631                       # mshr miss rate for WriteReq accesses
system.cpu.dcache.WriteReq_avg_mshr_miss_latency::.switch_cpus.data 20539.040107                       # average WriteReq mshr miss latency
system.cpu.dcache.WriteReq_avg_mshr_miss_latency::total 20539.040107                       # average WriteReq mshr miss latency
system.cpu.dcache.WriteLineReq_misses::.switch_cpus.data         2353                       # number of WriteLineReq misses
system.cpu.dcache.WriteLineReq_misses::total         2353                       # number of WriteLineReq misses
system.cpu.dcache.WriteLineReq_miss_latency::.switch_cpus.data     77096063                       # number of WriteLineReq miss cycles
system.cpu.dcache.WriteLineReq_miss_latency::total     77096063                       # number of WriteLineReq miss cycles
system.cpu.dcache.WriteLineReq_accesses::.switch_cpus.data         2353                       # number of WriteLineReq accesses(hits+misses)
system.cpu.dcache.WriteLineReq_accesses::total         2353                       # number of WriteLineReq accesses(hits+misses)
system.cpu.dcache.WriteLineReq_miss_rate::.switch_cpus.data            1                       # miss rate for WriteLineReq accesses
system.cpu.dcache.WriteLineReq_miss_rate::total            1                       # miss rate for WriteLineReq accesses
system.cpu.dcache.WriteLineReq_avg_miss_latency::.switch_cpus.data 32765.007650                       # average WriteLineReq miss latency
system.cpu.dcache.WriteLineReq_avg_miss_latency::total 32765.007650                       # average WriteLineReq miss latency
system.cpu.dcache.WriteLineReq_mshr_misses::.switch_cpus.data         2353                       # number of WriteLineReq MSHR misses
system.cpu.dcache.WriteLineReq_mshr_misses::total         2353                       # number of WriteLineReq MSHR misses
system.cpu.dcache.WriteLineReq_mshr_miss_latency::.switch_cpus.data     74743063                       # number of WriteLineReq MSHR miss cycles
system.cpu.dcache.WriteLineReq_mshr_miss_latency::total     74743063                       # number of WriteLineReq MSHR miss cycles
system.cpu.dcache.WriteLineReq_mshr_miss_rate::.switch_cpus.data            1                       # mshr miss rate for WriteLineReq accesses
system.cpu.dcache.WriteLineReq_mshr_miss_rate::total            1                       # mshr miss rate for WriteLineReq accesses
system.cpu.dcache.WriteLineReq_avg_mshr_miss_latency::.switch_cpus.data 31765.007650                       # average WriteLineReq mshr miss latency
system.cpu.dcache.WriteLineReq_avg_mshr_miss_latency::total 31765.007650                       # average WriteLineReq mshr miss latency
system.cpu.dcache.SwapReq_hits::.switch_cpus.data         1074                       # number of SwapReq hits
system.cpu.dcache.SwapReq_hits::total            1074                       # number of SwapReq hits
system.cpu.dcache.SwapReq_misses::.switch_cpus.data            2                       # number of SwapReq misses
system.cpu.dcache.SwapReq_misses::total             2                       # number of SwapReq misses
system.cpu.dcache.SwapReq_miss_latency::.switch_cpus.data        26000                       # number of SwapReq miss cycles
system.cpu.dcache.SwapReq_miss_latency::total        26000                       # number of SwapReq miss cycles
system.cpu.dcache.SwapReq_accesses::.switch_cpus.data         1076                       # number of SwapReq accesses(hits+misses)
system.cpu.dcache.SwapReq_accesses::total         1076                       # number of SwapReq accesses(hits+misses)
system.cpu.dcache.SwapReq_miss_rate::.switch_cpus.data     0.001859                       # miss rate for SwapReq accesses
system.cpu.dcache.SwapReq_miss_rate::total     0.001859                       # miss rate for SwapReq accesses
system.cpu.dcache.SwapReq_avg_miss_latency::.switch_cpus.data        13000                       # average SwapReq miss latency
system.cpu.dcache.SwapReq_avg_miss_latency::total        13000                       # average SwapReq miss latency
system.cpu.dcache.SwapReq_mshr_misses::.switch_cpus.data            2                       # number of SwapReq MSHR misses
system.cpu.dcache.SwapReq_mshr_misses::total            2                       # number of SwapReq MSHR misses
system.cpu.dcache.SwapReq_mshr_miss_latency::.switch_cpus.data        24000                       # number of SwapReq MSHR miss cycles
system.cpu.dcache.SwapReq_mshr_miss_latency::total        24000                       # number of SwapReq MSHR miss cycles
system.cpu.dcache.SwapReq_mshr_miss_rate::.switch_cpus.data     0.001859                       # mshr miss rate for SwapReq accesses
system.cpu.dcache.SwapReq_mshr_miss_rate::total     0.001859                       # mshr miss rate for SwapReq accesses
system.cpu.dcache.SwapReq_avg_mshr_miss_latency::.switch_cpus.data        12000                       # average SwapReq mshr miss latency
system.cpu.dcache.SwapReq_avg_mshr_miss_latency::total        12000                       # average SwapReq mshr miss latency
system.cpu.dcache.ghosttags.tagsinuse               0                       # Cycle average of tags in use
system.cpu.dcache.ghosttags.total_refs              0                       # Total number of references to valid blocks.
system.cpu.dcache.ghosttags.sampled_refs            0                       # Sample count of references to valid blocks.
system.cpu.dcache.ghosttags.avg_refs              nan                       # Average number of references to valid blocks.
system.cpu.dcache.ghosttags.warmup_cycle            0                       # Cycle when the warmup percentage was hit.
system.cpu.dcache.ghosttags.tag_accesses            0                       # Number of tag accesses
system.cpu.dcache.ghosttags.data_accesses            0                       # Number of data accesses
system.cpu.dcache.ghosttags.repl_invalid            0                       # Number of initial replacements
system.cpu.dcache.ghosttags.repl_valid_tag            0                       # Number of local replacements
system.cpu.dcache.ghosttags.repl_valid_data            0                       # Number of global replacements
system.cpu.dcache.ghosttags.power_state.pwrStateResidencyTicks::UNDEFINED 6565878158500                       # Cumulative time (in ticks) in various power states
system.cpu.dcache.power_state.pwrStateResidencyTicks::UNDEFINED 6565878158500                       # Cumulative time (in ticks) in various power states
system.cpu.dcache.tags.tagsinuse                  512                       # Cycle average of tags in use
system.cpu.dcache.tags.total_refs           623439887                       # Total number of references to valid blocks.
system.cpu.dcache.tags.sampled_refs          66810849                       # Sample count of references to valid blocks.
system.cpu.dcache.tags.avg_refs              9.331417                       # Average number of references to valid blocks.
system.cpu.dcache.tags.warmup_cycle                 0                       # Cycle when the warmup percentage was hit.
system.cpu.dcache.tags.occ_blocks::.cpu.data     0.002565                       # Average occupied blocks per requestor
system.cpu.dcache.tags.occ_blocks::.switch_cpus.data   511.997435                       # Average occupied blocks per requestor
system.cpu.dcache.tags.occ_percent::.cpu.data     0.000005                       # Average percentage of cache occupancy
system.cpu.dcache.tags.occ_percent::.switch_cpus.data     0.999995                       # Average percentage of cache occupancy
system.cpu.dcache.tags.occ_percent::total            1                       # Average percentage of cache occupancy
system.cpu.dcache.tags.occ_task_id_blocks::1024          512                       # Occupied blocks per task id
system.cpu.dcache.tags.age_task_id_blocks_1024::0          500                       # Occupied blocks per task id
system.cpu.dcache.tags.age_task_id_blocks_1024::1           11                       # Occupied blocks per task id
system.cpu.dcache.tags.age_task_id_blocks_1024::2            1                       # Occupied blocks per task id
system.cpu.dcache.tags.occ_task_id_percent::1024            1                       # Percentage of cache occupancy per task id
system.cpu.dcache.tags.tag_accesses        6120816361                       # Number of tag accesses
system.cpu.dcache.tags.data_accesses       6120816361                       # Number of data accesses
system.cpu.dcache.tags.repl_invalid                 0                       # Number of initial replacements
system.cpu.dcache.tags.repl_valid_tag               0                       # Number of local replacements
system.cpu.dcache.tags.repl_valid_data              0                       # Number of global replacements
system.cpu.dcache.tags.power_state.pwrStateResidencyTicks::UNDEFINED 6565878158500                       # Cumulative time (in ticks) in various power states
system.cpu.dtb.instHits                             0                       # ITB inst hits
system.cpu.dtb.instMisses                           0                       # ITB inst misses
system.cpu.dtb.readHits                             0                       # DTB read hits
system.cpu.dtb.readMisses                           0                       # DTB read misses
system.cpu.dtb.writeHits                            0                       # DTB write hits
system.cpu.dtb.writeMisses                          0                       # DTB write misses
system.cpu.dtb.inserts                              0                       # Number of times an entry is inserted into the TLB
system.cpu.dtb.flushTlb                             0                       # Number of times complete TLB was flushed
system.cpu.dtb.flushTlbMva                          0                       # Number of times TLB was flushed by MVA
system.cpu.dtb.flushTlbMvaAsid                      0                       # Number of times TLB was flushed by MVA & ASID
system.cpu.dtb.flushTlbAsid                         0                       # Number of times TLB was flushed by ASID
system.cpu.dtb.flushedEntries                       0                       # Number of entries that have been flushed from TLB
system.cpu.dtb.alignFaults                          0                       # Number of TLB faults due to alignment restrictions
system.cpu.dtb.prefetchFaults                       0                       # Number of TLB faults due to prefetch
system.cpu.dtb.domainFaults                         0                       # Number of TLB faults due to domain restrictions
system.cpu.dtb.permsFaults                          0                       # Number of TLB faults due to permissions restrictions
system.cpu.dtb.readAccesses                         0                       # DTB read accesses
system.cpu.dtb.writeAccesses                        0                       # DTB write accesses
system.cpu.dtb.instAccesses                         0                       # ITB inst accesses
system.cpu.dtb.hits                                 0                       # Total TLB (inst and data) hits
system.cpu.dtb.misses                               0                       # Total TLB (inst and data) misses
system.cpu.dtb.accesses                             0                       # Total TLB (inst and data) accesses
system.cpu.dtb.stage2_mmu.stage2_tlb.instHits            0                       # ITB inst hits
system.cpu.dtb.stage2_mmu.stage2_tlb.instMisses            0                       # ITB inst misses
system.cpu.dtb.stage2_mmu.stage2_tlb.readHits            0                       # DTB read hits
system.cpu.dtb.stage2_mmu.stage2_tlb.readMisses            0                       # DTB read misses
system.cpu.dtb.stage2_mmu.stage2_tlb.writeHits            0                       # DTB write hits
system.cpu.dtb.stage2_mmu.stage2_tlb.writeMisses            0                       # DTB write misses
system.cpu.dtb.stage2_mmu.stage2_tlb.inserts            0                       # Number of times an entry is inserted into the TLB
system.cpu.dtb.stage2_mmu.stage2_tlb.flushTlb            0                       # Number of times complete TLB was flushed
system.cpu.dtb.stage2_mmu.stage2_tlb.flushTlbMva            0                       # Number of times TLB was flushed by MVA
system.cpu.dtb.stage2_mmu.stage2_tlb.flushTlbMvaAsid            0                       # Number of times TLB was flushed by MVA & ASID
system.cpu.dtb.stage2_mmu.stage2_tlb.flushTlbAsid            0                       # Number of times TLB was flushed by ASID
system.cpu.dtb.stage2_mmu.stage2_tlb.flushedEntries            0                       # Number of entries that have been flushed from TLB
system.cpu.dtb.stage2_mmu.stage2_tlb.alignFaults            0                       # Number of TLB faults due to alignment restrictions
system.cpu.dtb.stage2_mmu.stage2_tlb.prefetchFaults            0                       # Number of TLB faults due to prefetch
system.cpu.dtb.stage2_mmu.stage2_tlb.domainFaults            0                       # Number of TLB faults due to domain restrictions
system.cpu.dtb.stage2_mmu.stage2_tlb.permsFaults            0                       # Number of TLB faults due to permissions restrictions
system.cpu.dtb.stage2_mmu.stage2_tlb.readAccesses            0                       # DTB read accesses
system.cpu.dtb.stage2_mmu.stage2_tlb.writeAccesses            0                       # DTB write accesses
system.cpu.dtb.stage2_mmu.stage2_tlb.instAccesses            0                       # ITB inst accesses
system.cpu.dtb.stage2_mmu.stage2_tlb.hits            0                       # Total TLB (inst and data) hits
system.cpu.dtb.stage2_mmu.stage2_tlb.misses            0                       # Total TLB (inst and data) misses
system.cpu.dtb.stage2_mmu.stage2_tlb.accesses            0                       # Total TLB (inst and data) accesses
system.cpu.dtb.stage2_mmu.stage2_tlb.walker.walks            0                       # Table walker walks requested
system.cpu.dtb.stage2_mmu.stage2_tlb.walker.requestOrigin_Requested::Data            0                       # Table walker requests started/completed, data/inst
system.cpu.dtb.stage2_mmu.stage2_tlb.walker.requestOrigin_Requested::Inst            0                       # Table walker requests started/completed, data/inst
system.cpu.dtb.stage2_mmu.stage2_tlb.walker.requestOrigin_Requested::total            0                       # Table walker requests started/completed, data/inst
system.cpu.dtb.stage2_mmu.stage2_tlb.walker.requestOrigin_Completed::Data            0                       # Table walker requests started/completed, data/inst
system.cpu.dtb.stage2_mmu.stage2_tlb.walker.requestOrigin_Completed::Inst            0                       # Table walker requests started/completed, data/inst
system.cpu.dtb.stage2_mmu.stage2_tlb.walker.requestOrigin_Completed::total            0                       # Table walker requests started/completed, data/inst
system.cpu.dtb.stage2_mmu.stage2_tlb.walker.requestOrigin::total            0                       # Table walker requests started/completed, data/inst
system.cpu.dtb.stage2_mmu.stage2_tlb.walker.power_state.pwrStateResidencyTicks::UNDEFINED 6565878158500                       # Cumulative time (in ticks) in various power states
system.cpu.dtb.walker.walks                         0                       # Table walker walks requested
system.cpu.dtb.walker.requestOrigin_Requested::Data            0                       # Table walker requests started/completed, data/inst
system.cpu.dtb.walker.requestOrigin_Requested::Inst            0                       # Table walker requests started/completed, data/inst
system.cpu.dtb.walker.requestOrigin_Requested::total            0                       # Table walker requests started/completed, data/inst
system.cpu.dtb.walker.requestOrigin_Completed::Data            0                       # Table walker requests started/completed, data/inst
system.cpu.dtb.walker.requestOrigin_Completed::Inst            0                       # Table walker requests started/completed, data/inst
system.cpu.dtb.walker.requestOrigin_Completed::total            0                       # Table walker requests started/completed, data/inst
system.cpu.dtb.walker.requestOrigin::total            0                       # Table walker requests started/completed, data/inst
system.cpu.dtb.walker.power_state.pwrStateResidencyTicks::UNDEFINED 6565878158500                       # Cumulative time (in ticks) in various power states
system.cpu.icache.demand_hits::.switch_cpus.inst    331625498                       # number of demand (read+write) hits
system.cpu.icache.demand_hits::total        331625498                       # number of demand (read+write) hits
system.cpu.icache.overall_hits::.switch_cpus.inst    331625498                       # number of overall hits
system.cpu.icache.overall_hits::total       331625498                       # number of overall hits
system.cpu.icache.demand_misses::.switch_cpus.inst     10017353                       # number of demand (read+write) misses
system.cpu.icache.demand_misses::total       10017353                       # number of demand (read+write) misses
system.cpu.icache.overall_misses::.switch_cpus.inst     10017353                       # number of overall misses
system.cpu.icache.overall_misses::total      10017353                       # number of overall misses
system.cpu.icache.demand_miss_latency::.switch_cpus.inst 129344276988                       # number of demand (read+write) miss cycles
system.cpu.icache.demand_miss_latency::total 129344276988                       # number of demand (read+write) miss cycles
system.cpu.icache.overall_miss_latency::.switch_cpus.inst 129344276988                       # number of overall miss cycles
system.cpu.icache.overall_miss_latency::total 129344276988                       # number of overall miss cycles
system.cpu.icache.demand_accesses::.switch_cpus.inst    341642851                       # number of demand (read+write) accesses
system.cpu.icache.demand_accesses::total    341642851                       # number of demand (read+write) accesses
system.cpu.icache.overall_accesses::.switch_cpus.inst    341642851                       # number of overall (read+write) accesses
system.cpu.icache.overall_accesses::total    341642851                       # number of overall (read+write) accesses
system.cpu.icache.demand_miss_rate::.switch_cpus.inst     0.029321                       # miss rate for demand accesses
system.cpu.icache.demand_miss_rate::total     0.029321                       # miss rate for demand accesses
system.cpu.icache.overall_miss_rate::.switch_cpus.inst     0.029321                       # miss rate for overall accesses
system.cpu.icache.overall_miss_rate::total     0.029321                       # miss rate for overall accesses
system.cpu.icache.demand_avg_miss_latency::.switch_cpus.inst 12912.021468                       # average overall miss latency
system.cpu.icache.demand_avg_miss_latency::total 12912.021468                       # average overall miss latency
system.cpu.icache.overall_avg_miss_latency::.switch_cpus.inst 12912.021468                       # average overall miss latency
system.cpu.icache.overall_avg_miss_latency::total 12912.021468                       # average overall miss latency
system.cpu.icache.blocked_cycles::no_mshrs         3140                       # number of cycles access was blocked
system.cpu.icache.blocked_cycles::no_targets            0                       # number of cycles access was blocked
system.cpu.icache.blocked::no_mshrs               215                       # number of cycles access was blocked
system.cpu.icache.blocked::no_targets               0                       # number of cycles access was blocked
system.cpu.icache.avg_blocked_cycles::no_mshrs    14.604651                       # average number of cycles each access was blocked
system.cpu.icache.avg_blocked_cycles::no_targets          nan                       # average number of cycles each access was blocked
system.cpu.icache.ghost_timestamp_misses            0                       # number of times timestamp policy causes a block to be inaccessible
system.cpu.icache.ghost_commits                     0                       # number of cache lines moved from ghost to main
system.cpu.icache.same_leapfrogs                    0                       # number of times leapfrogging occurs with a shared MSHR request
system.cpu.icache.writebacks::.writebacks      9585183                       # number of writebacks
system.cpu.icache.writebacks::total           9585183                       # number of writebacks
system.cpu.icache.demand_mshr_hits::.switch_cpus.inst       431995                       # number of demand (read+write) MSHR hits
system.cpu.icache.demand_mshr_hits::total       431995                       # number of demand (read+write) MSHR hits
system.cpu.icache.overall_mshr_hits::.switch_cpus.inst       431995                       # number of overall MSHR hits
system.cpu.icache.overall_mshr_hits::total       431995                       # number of overall MSHR hits
system.cpu.icache.demand_mshr_misses::.switch_cpus.inst      9585358                       # number of demand (read+write) MSHR misses
system.cpu.icache.demand_mshr_misses::total      9585358                       # number of demand (read+write) MSHR misses
system.cpu.icache.overall_mshr_misses::.switch_cpus.inst      9585358                       # number of overall MSHR misses
system.cpu.icache.overall_mshr_misses::total      9585358                       # number of overall MSHR misses
system.cpu.icache.demand_mshr_miss_latency::.switch_cpus.inst 116767074988                       # number of demand (read+write) MSHR miss cycles
system.cpu.icache.demand_mshr_miss_latency::total 116767074988                       # number of demand (read+write) MSHR miss cycles
system.cpu.icache.overall_mshr_miss_latency::.switch_cpus.inst 116767074988                       # number of overall MSHR miss cycles
system.cpu.icache.overall_mshr_miss_latency::total 116767074988                       # number of overall MSHR miss cycles
system.cpu.icache.demand_mshr_miss_rate::.switch_cpus.inst     0.028057                       # mshr miss rate for demand accesses
system.cpu.icache.demand_mshr_miss_rate::total     0.028057                       # mshr miss rate for demand accesses
system.cpu.icache.overall_mshr_miss_rate::.switch_cpus.inst     0.028057                       # mshr miss rate for overall accesses
system.cpu.icache.overall_mshr_miss_rate::total     0.028057                       # mshr miss rate for overall accesses
system.cpu.icache.demand_avg_mshr_miss_latency::.switch_cpus.inst 12181.816786                       # average overall mshr miss latency
system.cpu.icache.demand_avg_mshr_miss_latency::total 12181.816786                       # average overall mshr miss latency
system.cpu.icache.overall_avg_mshr_miss_latency::.switch_cpus.inst 12181.816786                       # average overall mshr miss latency
system.cpu.icache.overall_avg_mshr_miss_latency::total 12181.816786                       # average overall mshr miss latency
system.cpu.icache.replacements                9585183                       # number of replacements
system.cpu.icache.ReadReq_hits::.switch_cpus.inst    331625498                       # number of ReadReq hits
system.cpu.icache.ReadReq_hits::total       331625498                       # number of ReadReq hits
system.cpu.icache.ReadReq_misses::.switch_cpus.inst     10017353                       # number of ReadReq misses
system.cpu.icache.ReadReq_misses::total      10017353                       # number of ReadReq misses
system.cpu.icache.ReadReq_miss_latency::.switch_cpus.inst 129344276988                       # number of ReadReq miss cycles
system.cpu.icache.ReadReq_miss_latency::total 129344276988                       # number of ReadReq miss cycles
system.cpu.icache.ReadReq_accesses::.switch_cpus.inst    341642851                       # number of ReadReq accesses(hits+misses)
system.cpu.icache.ReadReq_accesses::total    341642851                       # number of ReadReq accesses(hits+misses)
system.cpu.icache.ReadReq_miss_rate::.switch_cpus.inst     0.029321                       # miss rate for ReadReq accesses
system.cpu.icache.ReadReq_miss_rate::total     0.029321                       # miss rate for ReadReq accesses
system.cpu.icache.ReadReq_avg_miss_latency::.switch_cpus.inst 12912.021468                       # average ReadReq miss latency
system.cpu.icache.ReadReq_avg_miss_latency::total 12912.021468                       # average ReadReq miss latency
system.cpu.icache.ReadReq_mshr_hits::.switch_cpus.inst       431995                       # number of ReadReq MSHR hits
system.cpu.icache.ReadReq_mshr_hits::total       431995                       # number of ReadReq MSHR hits
system.cpu.icache.ReadReq_mshr_misses::.switch_cpus.inst      9585358                       # number of ReadReq MSHR misses
system.cpu.icache.ReadReq_mshr_misses::total      9585358                       # number of ReadReq MSHR misses
system.cpu.icache.ReadReq_mshr_miss_latency::.switch_cpus.inst 116767074988                       # number of ReadReq MSHR miss cycles
system.cpu.icache.ReadReq_mshr_miss_latency::total 116767074988                       # number of ReadReq MSHR miss cycles
system.cpu.icache.ReadReq_mshr_miss_rate::.switch_cpus.inst     0.028057                       # mshr miss rate for ReadReq accesses
system.cpu.icache.ReadReq_mshr_miss_rate::total     0.028057                       # mshr miss rate for ReadReq accesses
system.cpu.icache.ReadReq_avg_mshr_miss_latency::.switch_cpus.inst 12181.816786                       # average ReadReq mshr miss latency
system.cpu.icache.ReadReq_avg_mshr_miss_latency::total 12181.816786                       # average ReadReq mshr miss latency
system.cpu.icache.ghosttags.tagsinuse               0                       # Cycle average of tags in use
system.cpu.icache.ghosttags.total_refs              0                       # Total number of references to valid blocks.
system.cpu.icache.ghosttags.sampled_refs            0                       # Sample count of references to valid blocks.
system.cpu.icache.ghosttags.avg_refs              nan                       # Average number of references to valid blocks.
system.cpu.icache.ghosttags.warmup_cycle            0                       # Cycle when the warmup percentage was hit.
system.cpu.icache.ghosttags.tag_accesses            0                       # Number of tag accesses
system.cpu.icache.ghosttags.data_accesses            0                       # Number of data accesses
system.cpu.icache.ghosttags.repl_invalid            0                       # Number of initial replacements
system.cpu.icache.ghosttags.repl_valid_tag            0                       # Number of local replacements
system.cpu.icache.ghosttags.repl_valid_data            0                       # Number of global replacements
system.cpu.icache.ghosttags.power_state.pwrStateResidencyTicks::UNDEFINED 6565878158500                       # Cumulative time (in ticks) in various power states
system.cpu.icache.power_state.pwrStateResidencyTicks::UNDEFINED 6565878158500                       # Cumulative time (in ticks) in various power states
system.cpu.icache.tags.tagsinuse           511.999083                       # Cycle average of tags in use
system.cpu.icache.tags.total_refs           346099659                       # Total number of references to valid blocks.
system.cpu.icache.tags.sampled_refs           9585870                       # Sample count of references to valid blocks.
system.cpu.icache.tags.avg_refs             36.105190                       # Average number of references to valid blocks.
system.cpu.icache.tags.warmup_cycle                 0                       # Cycle when the warmup percentage was hit.
system.cpu.icache.tags.occ_blocks::.cpu.inst     0.033493                       # Average occupied blocks per requestor
system.cpu.icache.tags.occ_blocks::.switch_cpus.inst   511.965590                       # Average occupied blocks per requestor
system.cpu.icache.tags.occ_percent::.cpu.inst     0.000065                       # Average percentage of cache occupancy
system.cpu.icache.tags.occ_percent::.switch_cpus.inst     0.999933                       # Average percentage of cache occupancy
system.cpu.icache.tags.occ_percent::total     0.999998                       # Average percentage of cache occupancy
system.cpu.icache.tags.occ_task_id_blocks::1024          512                       # Occupied blocks per task id
system.cpu.icache.tags.age_task_id_blocks_1024::1          443                       # Occupied blocks per task id
system.cpu.icache.tags.age_task_id_blocks_1024::2           61                       # Occupied blocks per task id
system.cpu.icache.tags.age_task_id_blocks_1024::3            5                       # Occupied blocks per task id
system.cpu.icache.tags.age_task_id_blocks_1024::4            3                       # Occupied blocks per task id
system.cpu.icache.tags.occ_task_id_percent::1024            1                       # Percentage of cache occupancy per task id
system.cpu.icache.tags.tag_accesses        2742728166                       # Number of tag accesses
system.cpu.icache.tags.data_accesses       2742728166                       # Number of data accesses
system.cpu.icache.tags.repl_invalid                 0                       # Number of initial replacements
system.cpu.icache.tags.repl_valid_tag               0                       # Number of local replacements
system.cpu.icache.tags.repl_valid_data              0                       # Number of global replacements
system.cpu.icache.tags.power_state.pwrStateResidencyTicks::UNDEFINED 6565878158500                       # Cumulative time (in ticks) in various power states
system.cpu.itb.instHits                             0                       # ITB inst hits
system.cpu.itb.instMisses                           0                       # ITB inst misses
system.cpu.itb.readHits                             0                       # DTB read hits
system.cpu.itb.readMisses                           0                       # DTB read misses
system.cpu.itb.writeHits                            0                       # DTB write hits
system.cpu.itb.writeMisses                          0                       # DTB write misses
system.cpu.itb.inserts                              0                       # Number of times an entry is inserted into the TLB
system.cpu.itb.flushTlb                             0                       # Number of times complete TLB was flushed
system.cpu.itb.flushTlbMva                          0                       # Number of times TLB was flushed by MVA
system.cpu.itb.flushTlbMvaAsid                      0                       # Number of times TLB was flushed by MVA & ASID
system.cpu.itb.flushTlbAsid                         0                       # Number of times TLB was flushed by ASID
system.cpu.itb.flushedEntries                       0                       # Number of entries that have been flushed from TLB
system.cpu.itb.alignFaults                          0                       # Number of TLB faults due to alignment restrictions
system.cpu.itb.prefetchFaults                       0                       # Number of TLB faults due to prefetch
system.cpu.itb.domainFaults                         0                       # Number of TLB faults due to domain restrictions
system.cpu.itb.permsFaults                          0                       # Number of TLB faults due to permissions restrictions
system.cpu.itb.readAccesses                         0                       # DTB read accesses
system.cpu.itb.writeAccesses                        0                       # DTB write accesses
system.cpu.itb.instAccesses                         0                       # ITB inst accesses
system.cpu.itb.hits                                 0                       # Total TLB (inst and data) hits
system.cpu.itb.misses                               0                       # Total TLB (inst and data) misses
system.cpu.itb.accesses                             0                       # Total TLB (inst and data) accesses
system.cpu.itb.stage2_mmu.stage2_tlb.instHits            0                       # ITB inst hits
[...]
system.switch_cpus.fetch.cycles            1131130160                       # Number of cycles fetch has run and was not squashing or blocked
system.switch_cpus.fetch.squashCycles        13186358                       # Number of cycles fetch has spent squashing
system.switch_cpus.fetch.miscStallCycles         2453                       # Number of cycles fetch has spent waiting on interrupts,or bad addresses, or out of MSHRs
system.switch_cpus.fetch.pendingTrapStallCycles         8437                       # Number of stall cycles due to pending traps
system.switch_cpus.fetch.icacheWaitRetryStallCycles          253                       # Number of stall cycles due to full MSHR
system.switch_cpus.fetch.cacheLines         341642857                       # Number of cache lines fetched
system.switch_cpus.fetch.icacheSquashes       3128962                       # Number of outstanding Icache misses that were squashed
system.switch_cpus.fetch.nisnDist::samples   1670007278                       # Number of instructions fetched each cycle (Total)
system.switch_cpus.fetch.nisnDist::mean      1.499840                       # Number of instructions fetched each cycle (Total)
system.switch_cpus.fetch.nisnDist::stdev     2.501490                       # Number of instructions fetched each cycle (Total)
system.switch_cpus.fetch.nisnDist::underflows            0      0.00%      0.00% # Number of instructions fetched each cycle (Total)
system.switch_cpus.fetch.nisnDist::0       1073196953     64.26%     64.26% # Number of instructions fetched each cycle (Total)
system.switch_cpus.fetch.nisnDist::1         86217088      5.16%     69.43% # Number of instructions fetched each cycle (Total)
system.switch_cpus.fetch.nisnDist::2         86052388      5.15%     74.58% # Number of instructions fetched each cycle (Total)
system.switch_cpus.fetch.nisnDist::3        143063049      8.57%     83.15% # Number of instructions fetched each cycle (Total)
system.switch_cpus.fetch.nisnDist::4         66379020      3.97%     87.12% # Number of instructions fetched each cycle (Total)
system.switch_cpus.fetch.nisnDist::5         19385156      1.16%     88.28% # Number of instructions fetched each cycle (Total)
system.switch_cpus.fetch.nisnDist::6         40057734      2.40%     90.68% # Number of instructions fetched each cycle (Total)
system.switch_cpus.fetch.nisnDist::7         30802176      1.84%     92.52% # Number of instructions fetched each cycle (Total)
system.switch_cpus.fetch.nisnDist::8        124853714      7.48%    100.00% # Number of instructions fetched each cycle (Total)
system.switch_cpus.fetch.nisnDist::overflows            0      0.00%    100.00% # Number of instructions fetched each cycle (Total)
system.switch_cpus.fetch.nisnDist::min_value            0                       # Number of instructions fetched each cycle (Total)
system.switch_cpus.fetch.nisnDist::max_value            8                       # Number of instructions fetched each cycle (Total)
system.switch_cpus.fetch.nisnDist::total   1670007278                       # Number of instructions fetched each cycle (Total)
system.switch_cpus.fetch.branchRate          0.392252                       # Number of branch fetches per cycle
system.switch_cpus.fetch.rate                1.306469                       # Number of inst fetches per cycle
system.switch_cpus.itb.instHits                     0                       # ITB inst hits
system.switch_cpus.itb.instMisses                   0                       # ITB inst misses
system.switch_cpus.itb.readHits                     0                       # DTB read hits
system.switch_cpus.itb.readMisses                   0                       # DTB read misses
system.switch_cpus.itb.writeHits                    0                       # DTB write hits
system.switch_cpus.itb.writeMisses                  0                       # DTB write misses
system.switch_cpus.itb.inserts                      0                       # Number of times an entry is inserted into the TLB
system.switch_cpus.itb.flushTlb                     2                       # Number of times complete TLB was flushed
system.switch_cpus.itb.flushTlbMva                  0                       # Number of times TLB was flushed by MVA
system.switch_cpus.itb.flushTlbMvaAsid              0                       # Number of times TLB was flushed by MVA & ASID
system.switch_cpus.itb.flushTlbAsid                 0                       # Number of times TLB was flushed by ASID
system.switch_cpus.itb.flushedEntries               0                       # Number of entries that have been flushed from TLB
system.switch_cpus.itb.alignFaults                  0                       # Number of TLB faults due to alignment restrictions
system.switch_cpus.itb.prefetchFaults               0                       # Number of TLB faults due to prefetch
system.switch_cpus.itb.domainFaults                 0                       # Number of TLB faults due to domain restrictions
system.switch_cpus.itb.permsFaults                  0                       # Number of TLB faults due to permissions restrictions
system.switch_cpus.itb.readAccesses                 0                       # DTB read accesses
system.switch_cpus.itb.writeAccesses                0                       # DTB write accesses
system.switch_cpus.itb.instAccesses                 0                       # ITB inst accesses
system.switch_cpus.itb.hits                         0                       # Total TLB (inst and data) hits
system.switch_cpus.itb.misses                       0                       # Total TLB (inst and data) misses
system.switch_cpus.itb.accesses                     0                       # Total TLB (inst and data) accesses
system.switch_cpus.itb.stage2_mmu.stage2_tlb.instHits            0                       # ITB inst hits
system.switch_cpus.itb.stage2_mmu.stage2_tlb.instMisses            0                       # ITB inst misses
system.switch_cpus.itb.stage2_mmu.stage2_tlb.readHits            0                       # DTB read hits
system.switch_cpus.itb.stage2_mmu.stage2_tlb.readMisses            0                       # DTB read misses
system.switch_cpus.itb.stage2_mmu.stage2_tlb.writeHits            0                       # DTB write hits
system.switch_cpus.itb.stage2_mmu.stage2_tlb.writeMisses            0                       # DTB write misses
system.switch_cpus.itb.stage2_mmu.stage2_tlb.inserts            0                       # Number of times an entry is inserted into the TLB
system.switch_cpus.itb.stage2_mmu.stage2_tlb.flushTlb            0                       # Number of times complete TLB was flushed
system.switch_cpus.itb.stage2_mmu.stage2_tlb.flushTlbMva            0                       # Number of times TLB was flushed by MVA
system.switch_cpus.itb.stage2_mmu.stage2_tlb.flushTlbMvaAsid            0                       # Number of times TLB was flushed by MVA & ASID
system.switch_cpus.itb.stage2_mmu.stage2_tlb.flushTlbAsid            0                       # Number of times TLB was flushed by ASID
system.switch_cpus.itb.stage2_mmu.stage2_tlb.flushedEntries            0                       # Number of entries that have been flushed from TLB
system.switch_cpus.itb.stage2_mmu.stage2_tlb.alignFaults            0                       # Number of TLB faults due to alignment restrictions
system.switch_cpus.itb.stage2_mmu.stage2_tlb.prefetchFaults            0                       # Number of TLB faults due to prefetch
system.switch_cpus.itb.stage2_mmu.stage2_tlb.domainFaults            0                       # Number of TLB faults due to domain restrictions
system.switch_cpus.itb.stage2_mmu.stage2_tlb.permsFaults            0                       # Number of TLB faults due to permissions restrictions
system.switch_cpus.itb.stage2_mmu.stage2_tlb.readAccesses            0                       # DTB read accesses
system.switch_cpus.itb.stage2_mmu.stage2_tlb.writeAccesses            0                       # DTB write accesses
system.switch_cpus.itb.stage2_mmu.stage2_tlb.instAccesses            0                       # ITB inst accesses
system.switch_cpus.itb.stage2_mmu.stage2_tlb.hits            0                       # Total TLB (inst and data) hits
system.switch_cpus.itb.stage2_mmu.stage2_tlb.misses            0                       # Total TLB (inst and data) misses
system.switch_cpus.itb.stage2_mmu.stage2_tlb.accesses            0                       # Total TLB (inst and data) accesses
system.switch_cpus.itb.stage2_mmu.stage2_tlb.walker.walks            0                       # Table walker walks requested
system.switch_cpus.itb.stage2_mmu.stage2_tlb.walker.requestOrigin_Requested::Data            0                       # Table walker requests started/completed, data/inst
system.switch_cpus.itb.stage2_mmu.stage2_tlb.walker.requestOrigin_Requested::Inst            0                       # Table walker requests started/completed, data/inst
system.switch_cpus.itb.stage2_mmu.stage2_tlb.walker.requestOrigin_Requested::total            0                       # Table walker requests started/completed, data/inst
system.switch_cpus.itb.stage2_mmu.stage2_tlb.walker.requestOrigin_Completed::Data            0                       # Table walker requests started/completed, data/inst
system.switch_cpus.itb.stage2_mmu.stage2_tlb.walker.requestOrigin_Completed::Inst            0                       # Table walker requests started/completed, data/inst
system.switch_cpus.itb.stage2_mmu.stage2_tlb.walker.requestOrigin_Completed::total            0                       # Table walker requests started/completed, data/inst
system.switch_cpus.itb.stage2_mmu.stage2_tlb.walker.requestOrigin::total            0                       # Table walker requests started/completed, data/inst
system.switch_cpus.itb.stage2_mmu.stage2_tlb.walker.power_state.pwrStateResidencyTicks::UNDEFINED 6565878158500                       # Cumulative time (in ticks) in various power states
system.switch_cpus.itb.walker.walks                 0                       # Table walker walks requested
system.switch_cpus.itb.walker.requestOrigin_Requested::Data            0                       # Table walker requests started/completed, data/inst
system.switch_cpus.itb.walker.requestOrigin_Requested::Inst            0                       # Table walker requests started/completed, data/inst
system.switch_cpus.itb.walker.requestOrigin_Requested::total            0                       # Table walker requests started/completed, data/inst
system.switch_cpus.itb.walker.requestOrigin_Completed::Data            0                       # Table walker requests started/completed, data/inst
system.switch_cpus.itb.walker.requestOrigin_Completed::Inst            0                       # Table walker requests started/completed, data/inst
system.switch_cpus.itb.walker.requestOrigin_Completed::total            0                       # Table walker requests started/completed, data/inst
system.switch_cpus.itb.walker.requestOrigin::total            0                       # Table walker requests started/completed, data/inst
system.switch_cpus.itb.walker.power_state.pwrStateResidencyTicks::UNDEFINED 6565878158500                       # Cumulative time (in ticks) in various power states
system.switch_cpus.lsq0.forwLoads             3450484                       # Number of loads that had data forwarded from stores
system.switch_cpus.lsq0.squashedLoads        36686908                       # Number of loads squashed
system.switch_cpus.lsq0.ignoredResponses        13203                       # Number of memory responses ignored because the instruction is squashed
system.switch_cpus.lsq0.memOrderViolation        46966                       # Number of memory ordering violations
system.switch_cpus.lsq0.squashedStores        7515257                       # Number of stores squashed
system.switch_cpus.lsq0.rescheduledLoads     12397689                       # Number of loads that were rescheduled
system.switch_cpus.lsq0.blockedByCache        4603562                       # Number of times an access to memory failed due to the cache being blocked
system.switch_cpus.power_state.pwrStateResidencyTicks::OFF 6565878158500                       # Cumulative time (in ticks) in various power states
system.switch_cpus.rename.squashCycles        5860468                       # Number of cycles rename is squashing
system.switch_cpus.rename.idleCycles        404359417                       # Number of cycles rename is idle
system.switch_cpus.rename.blockCycles       267461636                       # Number of cycles rename is blocking
system.switch_cpus.rename.serializeStallCycles     14280566                       # count of cycles rename stalledfor serializing inst
system.switch_cpus.rename.runCycles         371789719                       # Number of cycles rename is running
system.switch_cpus.rename.unblockCycles     606255467                       # Number of cycles rename is unblocking
system.switch_cpus.rename.renamedInsts     2458413229                       # Number of instructions processed by rename
system.switch_cpus.rename.ROBFullEvents         52545                       # Number of times rename has blocked due to ROB full
system.switch_cpus.rename.IQFullEvents       96425647                       # Number of times rename has blocked due to IQ full
system.switch_cpus.rename.LQFullEvents      533627768                       # Number of times rename has blocked due to LQ full
system.switch_cpus.rename.SQFullEvents        3944752                       # Number of times rename has blocked due to SQ full
system.switch_cpus.rename.renamedOperands   2487009953                       # Number of destination operands rename has renamed
system.switch_cpus.rename.lookups          3580329456                       # Number of register rename lookups that rename has made
system.switch_cpus.rename.intLookups       2788818362                       # Number of integer rename lookups
system.switch_cpus.rename.vecLookups          5095920                       # Number of vector rename lookups
system.switch_cpus.rename.vecPredLookups       638095                       # Number of vector predicate rename lookups
system.switch_cpus.rename.committedMaps    2323152511                       # Number of HB maps that are committed
system.switch_cpus.rename.undoneMaps        163857355                       # Number of HB maps that are undone due to squashing
system.switch_cpus.rename.serializing          653836                       # count of serializing insts renamed
system.switch_cpus.rename.tempSerializing         1817                       # count of temporary serializing insts renamed
system.switch_cpus.rename.skidInsts         535677884                       # count of insts added to the skid buffer
system.switch_cpus.rob.reads               3887574087                       # The number of ROB reads
system.switch_cpus.rob.writes              4890271037                       # The number of ROB writes
system.switch_cpus.thread0.numInsts        2000000006                       # Number of Instructions committed
system.switch_cpus.thread0.numOps          2268303567                       # Number of Ops committed
system.switch_cpus.thread0.numMemRefs               0                       # Number of Memory References
system.tol2bus.trans_dist::ReadResp          75216260                       # Transaction distribution
system.tol2bus.trans_dist::WritebackDirty     63990500                       # Transaction distribution
system.tol2bus.trans_dist::WritebackClean     12607772                       # Transaction distribution
system.tol2bus.trans_dist::CleanEvict          253947                       # Transaction distribution
system.tol2bus.trans_dist::HardPFReq           170581                       # Transaction distribution
system.tol2bus.trans_dist::UpgradeReq             175                       # Transaction distribution
system.tol2bus.trans_dist::UpgradeResp            175                       # Transaction distribution
system.tol2bus.trans_dist::ReadExReq          1171628                       # Transaction distribution
system.tol2bus.trans_dist::ReadExResp         1171628                       # Transaction distribution
system.tol2bus.trans_dist::ReadCleanReq       9585358                       # Transaction distribution
system.tol2bus.trans_dist::ReadSharedReq     65630903                       # Transaction distribution
system.tol2bus.trans_dist::InvalidateReq         7807                       # Transaction distribution
system.tol2bus.trans_dist::InvalidateResp         7807                       # Transaction distribution
system.tol2bus.pkt_count_system.cpu.icache.mem_side_port::system.l2.cpu_side_port     28755405                       # Packet count per connected requestor and responder (bytes)
system.tol2bus.pkt_count_system.cpu.dcache.mem_side_port::system.l2.cpu_side_port    200431362                       # Packet count per connected requestor and responder (bytes)
system.tol2bus.pkt_count::total             229186767                       # Packet count per connected requestor and responder (bytes)
system.tol2bus.pkt_size_system.cpu.icache.mem_side_port::system.l2.cpu_side_port   1226883008                       # Cumulative packet size per connected requestor and responder (bytes)
system.tol2bus.pkt_size_system.cpu.dcache.mem_side_port::system.l2.cpu_side_port   8551223488                       # Cumulative packet size per connected requestor and responder (bytes)
system.tol2bus.pkt_size::total             9778106496                       # Cumulative packet size per connected requestor and responder (bytes)
system.tol2bus.snoops                          627774                       # Total snoops (count)
system.tol2bus.snoopTraffic                  13007744                       # Total snoop traffic (bytes)
system.tol2bus.snoop_fanout::samples         77023152                       # Request fanout histogram
system.tol2bus.snoop_fanout::mean            0.000212                       # Request fanout histogram
system.tol2bus.snoop_fanout::stdev           0.014542                       # Request fanout histogram
system.tol2bus.snoop_fanout::underflows             0      0.00%      0.00% # Request fanout histogram
system.tol2bus.snoop_fanout::0               77006860     99.98%     99.98% # Request fanout histogram
system.tol2bus.snoop_fanout::1                  16292      0.02%    100.00% # Request fanout histogram
system.tol2bus.snoop_fanout::2                      0      0.00%    100.00% # Request fanout histogram
system.tol2bus.snoop_fanout::overflows              0      0.00%    100.00% # Request fanout histogram
system.tol2bus.snoop_fanout::min_value              0                       # Request fanout histogram
system.tol2bus.snoop_fanout::max_value              1                       # Request fanout histogram
system.tol2bus.snoop_fanout::total           77023152                       # Request fanout histogram
system.tol2bus.power_state.pwrStateResidencyTicks::UNDEFINED 6565878158500                       # Cumulative time (in ticks) in various power states
system.tol2bus.reqLayer0.occupancy       152791216499                       # Layer occupancy (ticks)
system.tol2bus.reqLayer0.utilization             18.0                       # Layer utilization (%)
system.tol2bus.respLayer0.occupancy       14390427669                       # Layer occupancy (ticks)
system.tol2bus.respLayer0.utilization             1.7                       # Layer utilization (%)
system.tol2bus.respLayer1.occupancy      100211392772                       # Layer occupancy (ticks)
system.tol2bus.respLayer1.utilization            11.8                       # Layer utilization (%)
system.voltage_domain.voltage                       1                       # Voltage in Volts

---------- End Simulation Statistics   ----------
