warn: Base 10 memory/cache size 16384MB will be cast to base 2 size 16384MiB.
warn: Base 10 memory/cache size 8MB will be cast to base 2 size 8MiB.
warn: Base 10 memory/cache size 32kB will be cast to base 2 size 32KiB.
warn: Base 10 memory/cache size 32kB will be cast to base 2 size 32KiB.
warn: Base 10 memory/cache size 8MB will be cast to base 2 size 8MiB.
Global frequency set at 1000000000000 ticks per second
src/base/statistics.hh:279: warn: One of the stats is a legacy stat. Legacy stat is a stat that does not belong to any statistics::Group. Legacy stat is deprecated.
      0: system.l2.tags.indexing_policy: Size of Tag-Store for Skewed-Assoc-Randomized - Sets:8192, with Assoc:28 
      0: system.l2.tags: Size of Tag-Store for Vway-Tags is 229376 lines, with assoc:28 and size 14680064 Bytes
      0: system.l2.tags: Actual Size of Cache seen from Vway-Tags is 131072 lines, with assoc:16 and size 8388608 Bytes
      0: system.l2.tags: Data Repl Policy: 0 (0-Random,1-Reuse).
src/base/remote_gdb.cc:418: warn: Sockets disabled, not accepting gdb connections
src/sim/process.cc:396: warn: Checkpoints for pipes, device drivers and sockets do not work.
gem5 Simulator System.  https://www.gem5.org
gem5 is copyrighted software; use the --copyright option for details.

gem5 version 24.1.0.2
gem5 compiled Apr 11 2025 20:05:30
gem5 started Apr 19 2025 17:50:26
gem5 executing on kabini, pid 1988590
command line: /home/maintainer/cs773_CompArch-Perf-Security/Final_Project/Workspace/gem5-mirage-v24.0/build/ARM/gem5.opt --outdir=mirage_mirage_250419-17_50_25560 /home/maintainer/cs773_CompArch-Perf-Security/Final_Project/Workspace/gem5-mirage-v24.0/configs/se.py --cmd ../../exe/speed_bwaves_base.spec-64 --option bwaves_1 -i bwaves_1.in --checkpoint-dir=/home/maintainer/cs773_CompArch-Perf-Security/Final_Project/Workspace/SPEC17_workloads/checkpoints/bwaves --checkpoint-restore=10000000000 --at-instruction --num-cpus=1 --mem-size=16384MB --mem-type=DDR4_2400_8x8 --cpu-type DerivO3CPU --caches --l2cache --l1d_size=32kB --l1i_size=32kB --l2_size=8MB --l1d_assoc=8 --l1i_assoc=8 --l2_assoc=16 --warmup-insts=10000000000 --maxinsts=10000000000 --mirage_mode=skew-vway-rand --l2_numSkews=2 --l2_TDR=1.75 --l2_EncrLat=3 --prog-interval=100Hz

info: Standard input is not a terminal, disabling listeners.
MEM SIZE  17179869185
Switch at curTick count:10000
src/sim/simulate.cc:199: info: Entering event queue @ 6004359383000.  Starting simulation...
src/sim/power_state.cc:105: warn: PowerState: Already in the requested power state, request ignored
src/arch/arm/isa.hh:214: warn: User mode does not have SPSR
src/arch/arm/isa.hh:214: warn: User mode does not have SPSR
Switched CPUS @ tick 6004359393000
switching cpus
**** REAL SIMULATION ****
src/sim/simulate.cc:199: info: Entering event queue @ 6004359393000.  Starting simulation...
6014359383000: Event_144: system.switch_cpus progress event, total committed:17054246, progress insts committed: 17054246, IPC: 0.852712
6024359383000: Event_144: system.switch_cpus progress event, total committed:34051790, progress insts committed: 16997544, IPC: 0.849877
6034359383000: Event_144: system.switch_cpus progress event, total committed:51047352, progress insts committed: 16995562, IPC: 0.849778
6044359383000: Event_144: system.switch_cpus progress event, total committed:68041155, progress insts committed: 16993803, IPC: 00.84969
6054359383000: Event_144: system.switch_cpus progress event, total committed:85026950, progress insts committed: 16985795, IPC: 00.84929
6064359383000: Event_144: system.switch_cpus progress event, total committed:102026589, progress insts committed: 16999639, IPC: 0.849982
6074359383000: Event_144: system.switch_cpus progress event, total committed:119019969, progress insts committed: 16993380, IPC: 0.849669
6084359383000: Event_144: system.switch_cpus progress event, total committed:136018493, progress insts committed: 16998524, IPC: 0.849926
6094359383000: Event_144: system.switch_cpus progress event, total committed:153008063, progress insts committed: 16989570, IPC: 0.849479
6104359383000: Event_144: system.switch_cpus progress event, total committed:170003509, progress insts committed: 16995446, IPC: 0.849772
6114359383000: Event_144: system.switch_cpus progress event, total committed:186999578, progress insts committed: 16996069, IPC: 0.849803
6124359383000: Event_144: system.switch_cpus progress event, total committed:203993768, progress insts committed: 16994190, IPC: 00.84971
6134359383000: Event_144: system.switch_cpus progress event, total committed:220993473, progress insts committed: 16999705, IPC: 0.849985
6144359383000: Event_144: system.switch_cpus progress event, total committed:237983558, progress insts committed: 16990085, IPC: 0.849504
6154359383000: Event_144: system.switch_cpus progress event, total committed:254968560, progress insts committed: 16985002, IPC: 00.84925
6164359383000: Event_144: system.switch_cpus progress event, total committed:271963606, progress insts committed: 16995046, IPC: 0.849752
6174359383000: Event_144: system.switch_cpus progress event, total committed:288946829, progress insts committed: 16983223, IPC: 0.849161
6184359383000: Event_144: system.switch_cpus progress event, total committed:305930578, progress insts committed: 16983749, IPC: 0.849187
6194359383000: Event_144: system.switch_cpus progress event, total committed:322937205, progress insts committed: 17006627, IPC: 0.850331
6204359383000: Event_144: system.switch_cpus progress event, total committed:339932597, progress insts committed: 16995392, IPC: 00.84977
6214359383000: Event_144: system.switch_cpus progress event, total committed:356921776, progress insts committed: 16989179, IPC: 0.849459
6224359383000: Event_144: system.switch_cpus progress event, total committed:373909285, progress insts committed: 16987509, IPC: 0.849375
6234359383000: Event_144: system.switch_cpus progress event, total committed:390911420, progress insts committed: 17002135, IPC: 0.850107
6244359383000: Event_144: system.switch_cpus progress event, total committed:407903306, progress insts committed: 16991886, IPC: 0.849594
6254359383000: Event_144: system.switch_cpus progress event, total committed:424900822, progress insts committed: 16997516, IPC: 0.849876
6264359383000: Event_144: system.switch_cpus progress event, total committed:441896399, progress insts committed: 16995577, IPC: 0.849779
6274359383000: Event_144: system.switch_cpus progress event, total committed:458890655, progress insts committed: 16994256, IPC: 0.849713
6284359383000: Event_144: system.switch_cpus progress event, total committed:475887637, progress insts committed: 16996982, IPC: 0.849849
6294359383000: Event_144: system.switch_cpus progress event, total committed:492885213, progress insts committed: 16997576, IPC: 0.849879
6304359383000: Event_144: system.switch_cpus progress event, total committed:509882412, progress insts committed: 16997199, IPC: 00.84986
6314359383000: Event_144: system.switch_cpus progress event, total committed:526856060, progress insts committed: 16973648, IPC: 0.848682
6324359383000: Event_144: system.switch_cpus progress event, total committed:543853818, progress insts committed: 16997758, IPC: 0.849888
6334359383000: Event_144: system.switch_cpus progress event, total committed:560857010, progress insts committed: 17003192, IPC: 00.85016
6344359383000: Event_144: system.switch_cpus progress event, total committed:577847834, progress insts committed: 16990824, IPC: 0.849541
6354359383000: Event_144: system.switch_cpus progress event, total committed:594840367, progress insts committed: 16992533, IPC: 0.849627
6364359383000: Event_144: system.switch_cpus progress event, total committed:611835958, progress insts committed: 16995591, IPC: 00.84978
6374359383000: Event_144: system.switch_cpus progress event, total committed:628824801, progress insts committed: 16988843, IPC: 0.849442
6384359383000: Event_144: system.switch_cpus progress event, total committed:645833827, progress insts committed: 17009026, IPC: 0.850451
6394359383000: Event_144: system.switch_cpus progress event, total committed:662811133, progress insts committed: 16977306, IPC: 0.848865
6404359383000: Event_144: system.switch_cpus progress event, total committed:679807469, progress insts committed: 16996336, IPC: 0.849817
6414359383000: Event_144: system.switch_cpus progress event, total committed:696788527, progress insts committed: 16981058, IPC: 0.849053
6424359383000: Event_144: system.switch_cpus progress event, total committed:713773216, progress insts committed: 16984689, IPC: 0.849234
6434359383000: Event_144: system.switch_cpus progress event, total committed:730761209, progress insts committed: 16987993, IPC: 000.8494
6444359383000: Event_144: system.switch_cpus progress event, total committed:747753783, progress insts committed: 16992574, IPC: 0.849629
src/arch/arm/insts/pseudo.cc:174: warn: 	instruction 'bti' unimplemented
6454359383000: Event_144: system.switch_cpus progress event, total committed:760613526, progress insts committed: 12859743, IPC: 0.642987
6464359383000: Event_144: system.switch_cpus progress event, total committed:773033996, progress insts committed: 12420470, IPC: 0.621023
6474359383000: Event_144: system.switch_cpus progress event, total committed:785534394, progress insts committed: 12500398, IPC: 00.62502
6484359383000: Event_144: system.switch_cpus progress event, total committed:798050300, progress insts committed: 12515906, IPC: 0.625795
6494359383000: Event_144: system.switch_cpus progress event, total committed:810547654, progress insts committed: 12497354, IPC: 0.624868
6504359383000: Event_144: system.switch_cpus progress event, total committed:823048925, progress insts committed: 12501271, IPC: 0.625064
6514359383000: Event_144: system.switch_cpus progress event, total committed:835566108, progress insts committed: 12517183, IPC: 0.625859
6524359383000: Event_144: system.switch_cpus progress event, total committed:848079037, progress insts committed: 12512929, IPC: 0.625646
6534359383000: Event_144: system.switch_cpus progress event, total committed:860578414, progress insts committed: 12499377, IPC: 0.624969
6544359383000: Event_144: system.switch_cpus progress event, total committed:873090129, progress insts committed: 12511715, IPC: 0.625586
6554359383000: Event_144: system.switch_cpus progress event, total committed:885592900, progress insts committed: 12502771, IPC: 0.625139
6564359383000: Event_144: system.switch_cpus progress event, total committed:898101307, progress insts committed: 12508407, IPC: 00.62542
6574359383000: Event_144: system.switch_cpus progress event, total committed:910605103, progress insts committed: 12503796, IPC: 00.62519
6584359383000: Event_144: system.switch_cpus progress event, total committed:923117044, progress insts committed: 12511941, IPC: 0.625597
6594359383000: Event_144: system.switch_cpus progress event, total committed:935619620, progress insts committed: 12502576, IPC: 0.625129
6604359383000: Event_144: system.switch_cpus progress event, total committed:948118734, progress insts committed: 12499114, IPC: 0.624956
6614359383000: Event_144: system.switch_cpus progress event, total committed:960631265, progress insts committed: 12512531, IPC: 0.625627
6624359383000: Event_144: system.switch_cpus progress event, total committed:973142097, progress insts committed: 12510832, IPC: 0.625542
6634359383000: Event_144: system.switch_cpus progress event, total committed:985646231, progress insts committed: 12504134, IPC: 0.625207
6644359383000: Event_144: system.switch_cpus progress event, total committed:998154323, progress insts committed: 12508092, IPC: 0.625405
6654359383000: Event_144: system.switch_cpus progress event, total committed:1010649038, progress insts committed: 12494715, IPC: 0.624736
6664359383000: Event_144: system.switch_cpus progress event, total committed:1023144548, progress insts committed: 12495510, IPC: 0.624776
6674359383000: Event_144: system.switch_cpus progress event, total committed:1035657532, progress insts committed: 12512984, IPC: 0.625649
6684359383000: Event_144: system.switch_cpus progress event, total committed:1048166671, progress insts committed: 12509139, IPC: 0.625457
6694359383000: Event_144: system.switch_cpus progress event, total committed:1060669930, progress insts committed: 12503259, IPC: 0.625163
6704359383000: Event_144: system.switch_cpus progress event, total committed:1073168015, progress insts committed: 12498085, IPC: 0.624904
6714359383000: Event_144: system.switch_cpus progress event, total committed:1085673060, progress insts committed: 12505045, IPC: 0.625252
6724359383000: Event_144: system.switch_cpus progress event, total committed:1098180195, progress insts committed: 12507135, IPC: 0.625357
6734359383000: Event_144: system.switch_cpus progress event, total committed:1110676178, progress insts committed: 12495983, IPC: 0.624799
6744359383000: Event_144: system.switch_cpus progress event, total committed:1123193985, progress insts committed: 12517807, IPC: 00.62589
6754359383000: Event_144: system.switch_cpus progress event, total committed:1135704222, progress insts committed: 12510237, IPC: 0.625512
6764359383000: Event_144: system.switch_cpus progress event, total committed:1148211771, progress insts committed: 12507549, IPC: 0.625377
6774359383000: Event_144: system.switch_cpus progress event, total committed:1160718893, progress insts committed: 12507122, IPC: 0.625356
6784359383000: Event_144: system.switch_cpus progress event, total committed:1173229220, progress insts committed: 12510327, IPC: 0.625516
6794359383000: Event_144: system.switch_cpus progress event, total committed:1185736130, progress insts committed: 12506910, IPC: 0.625345
6804359383000: Event_144: system.switch_cpus progress event, total committed:1198244666, progress insts committed: 12508536, IPC: 0.625427
6814359383000: Event_144: system.switch_cpus progress event, total committed:1210751247, progress insts committed: 12506581, IPC: 0.625329
6824359383000: Event_144: system.switch_cpus progress event, total committed:1223267499, progress insts committed: 12516252, IPC: 0.625813
6834359383000: Event_144: system.switch_cpus progress event, total committed:1235774338, progress insts committed: 12506839, IPC: 0.625342
6844359383000: Event_144: system.switch_cpus progress event, total committed:1248271956, progress insts committed: 12497618, IPC: 0.624881
6854359383000: Event_144: system.switch_cpus progress event, total committed:1260771296, progress insts committed: 12499340, IPC: 0.624967
6864359383000: Event_144: system.switch_cpus progress event, total committed:1273287952, progress insts committed: 12516656, IPC: 0.625833
6874359383000: Event_144: system.switch_cpus progress event, total committed:1285794200, progress insts committed: 12506248, IPC: 0.625312
6884359383000: Event_144: system.switch_cpus progress event, total committed:1298301221, progress insts committed: 12507021, IPC: 0.625351
6894359383000: Event_144: system.switch_cpus progress event, total committed:1310803400, progress insts committed: 12502179, IPC: 0.625109
6904359383000: Event_144: system.switch_cpus progress event, total committed:1323303067, progress insts committed: 12499667, IPC: 0.624983
6914359383000: Event_144: system.switch_cpus progress event, total committed:1335807321, progress insts committed: 12504254, IPC: 0.625213
6924359383000: Event_144: system.switch_cpus progress event, total committed:1348312491, progress insts committed: 12505170, IPC: 0.625259
6934359383000: Event_144: system.switch_cpus progress event, total committed:1360821965, progress insts committed: 12509474, IPC: 0.625474
6944359383000: Event_144: system.switch_cpus progress event, total committed:1373318936, progress insts committed: 12496971, IPC: 0.624849
6954359383000: Event_144: system.switch_cpus progress event, total committed:1385829690, progress insts committed: 12510754, IPC: 0.625538
6964359383000: Event_144: system.switch_cpus progress event, total committed:1398338311, progress insts committed: 12508621, IPC: 0.625431
6974359383000: Event_144: system.switch_cpus progress event, total committed:1410844838, progress insts committed: 12506527, IPC: 0.625326
6984359383000: Event_144: system.switch_cpus progress event, total committed:1423351380, progress insts committed: 12506542, IPC: 0.625327
6994359383000: Event_144: system.switch_cpus progress event, total committed:1435845061, progress insts committed: 12493681, IPC: 0.624684
7004359383000: Event_144: system.switch_cpus progress event, total committed:1448348995, progress insts committed: 12503934, IPC: 0.625197
7014359383000: Event_144: system.switch_cpus progress event, total committed:1460853155, progress insts committed: 12504160, IPC: 0.625208
7024359383000: Event_144: system.switch_cpus progress event, total committed:1473365984, progress insts committed: 12512829, IPC: 0.625641
7034359383000: Event_144: system.switch_cpus progress event, total committed:1485860043, progress insts committed: 12494059, IPC: 0.624703
7044359383000: Event_144: system.switch_cpus progress event, total committed:1498369508, progress insts committed: 12509465, IPC: 0.625473
7054359383000: Event_144: system.switch_cpus progress event, total committed:1510876745, progress insts committed: 12507237, IPC: 0.625362
7064359383000: Event_144: system.switch_cpus progress event, total committed:1523369510, progress insts committed: 12492765, IPC: 0.624638
7074359383000: Event_144: system.switch_cpus progress event, total committed:1535882016, progress insts committed: 12512506, IPC: 0.625625
7084359383000: Event_144: system.switch_cpus progress event, total committed:1548385294, progress insts committed: 12503278, IPC: 0.625164
7094359383000: Event_144: system.switch_cpus progress event, total committed:1560892669, progress insts committed: 12507375, IPC: 0.625369
7104359383000: Event_144: system.switch_cpus progress event, total committed:1573396188, progress insts committed: 12503519, IPC: 0.625176
7114359383000: Event_144: system.switch_cpus progress event, total committed:1585890442, progress insts committed: 12494254, IPC: 0.624713
7124359383000: Event_144: system.switch_cpus progress event, total committed:1598398826, progress insts committed: 12508384, IPC: 0.625419
7134359383000: Event_144: system.switch_cpus progress event, total committed:1610909093, progress insts committed: 12510267, IPC: 0.625513
7144359383000: Event_144: system.switch_cpus progress event, total committed:1623413941, progress insts committed: 12504848, IPC: 0.625242
7154359383000: Event_144: system.switch_cpus progress event, total committed:1635913372, progress insts committed: 12499431, IPC: 0.624972
7164359383000: Event_144: system.switch_cpus progress event, total committed:1648426847, progress insts committed: 12513475, IPC: 0.625674
7174359383000: Event_144: system.switch_cpus progress event, total committed:1660935046, progress insts committed: 12508199, IPC: 00.62541
7184359383000: Event_144: system.switch_cpus progress event, total committed:1673450811, progress insts committed: 12515765, IPC: 0.625788
7194359383000: Event_144: system.switch_cpus progress event, total committed:1685949685, progress insts committed: 12498874, IPC: 0.624944
7204359383000: Event_144: system.switch_cpus progress event, total committed:1698447435, progress insts committed: 12497750, IPC: 0.624888
7214359383000: Event_144: system.switch_cpus progress event, total committed:1710949061, progress insts committed: 12501626, IPC: 0.625081
7224359383000: Event_144: system.switch_cpus progress event, total committed:1723445893, progress insts committed: 12496832, IPC: 0.624842
7234359383000: Event_144: system.switch_cpus progress event, total committed:1735946589, progress insts committed: 12500696, IPC: 0.625035
7244359383000: Event_144: system.switch_cpus progress event, total committed:1748444501, progress insts committed: 12497912, IPC: 0.624896
7254359383000: Event_144: system.switch_cpus progress event, total committed:1760947043, progress insts committed: 12502542, IPC: 0.625127
7264359383000: Event_144: system.switch_cpus progress event, total committed:1773445965, progress insts committed: 12498922, IPC: 0.624946
7274359383000: Event_144: system.switch_cpus progress event, total committed:1785955606, progress insts committed: 12509641, IPC: 0.625482
7284359383000: Event_144: system.switch_cpus progress event, total committed:1798466228, progress insts committed: 12510622, IPC: 0.625531
7294359383000: Event_144: system.switch_cpus progress event, total committed:1810978970, progress insts committed: 12512742, IPC: 0.625637
7304359383000: Event_144: system.switch_cpus progress event, total committed:1823480555, progress insts committed: 12501585, IPC: 0.625079
7314359383000: Event_144: system.switch_cpus progress event, total committed:1835987948, progress insts committed: 12507393, IPC: 00.62537
7324359383000: Event_144: system.switch_cpus progress event, total committed:1848500846, progress insts committed: 12512898, IPC: 0.625645
7334359383000: Event_144: system.switch_cpus progress event, total committed:1861013605, progress insts committed: 12512759, IPC: 0.625638
7344359383000: Event_144: system.switch_cpus progress event, total committed:1873519605, progress insts committed: 12506000, IPC: 000.6253
7354359383000: Event_144: system.switch_cpus progress event, total committed:1886019570, progress insts committed: 12499965, IPC: 0.624998
7364359383000: Event_144: system.switch_cpus progress event, total committed:1898522607, progress insts committed: 12503037, IPC: 0.625152
7374359383000: Event_144: system.switch_cpus progress event, total committed:1911026909, progress insts committed: 12504302, IPC: 0.625215
7384359383000: Event_144: system.switch_cpus progress event, total committed:1923523722, progress insts committed: 12496813, IPC: 0.624841
7394359383000: Event_144: system.switch_cpus progress event, total committed:1936033430, progress insts committed: 12509708, IPC: 0.625485
7404359383000: Event_144: system.switch_cpus progress event, total committed:1948554124, progress insts committed: 12520694, IPC: 0.626035
7414359383000: Event_144: system.switch_cpus progress event, total committed:1961060760, progress insts committed: 12506636, IPC: 0.625332
7424359383000: Event_144: system.switch_cpus progress event, total committed:1973572624, progress insts committed: 12511864, IPC: 0.625593
7434359383000: Event_144: system.switch_cpus progress event, total committed:1986071669, progress insts committed: 12499045, IPC: 0.624952
7444359383000: Event_144: system.switch_cpus progress event, total committed:1998571606, progress insts committed: 12499937, IPC: 0.624997
7454359383000: Event_144: system.switch_cpus progress event, total committed:2011080267, progress insts committed: 12508661, IPC: 0.625433
7464359383000: Event_144: system.switch_cpus progress event, total committed:2023589041, progress insts committed: 12508774, IPC: 0.625439
7474359383000: Event_144: system.switch_cpus progress event, total committed:2036095259, progress insts committed: 12506218, IPC: 0.625311
7484359383000: Event_144: system.switch_cpus progress event, total committed:2048595044, progress insts committed: 12499785, IPC: 0.624989
7494359383000: Event_144: system.switch_cpus progress event, total committed:2061099386, progress insts committed: 12504342, IPC: 0.625217
7504359383000: Event_144: system.switch_cpus progress event, total committed:2073593345, progress insts committed: 12493959, IPC: 0.624698
src/arch/arm/insts/pseudo.cc:174: warn: 	instruction 'bti' unimplemented
src/sim/mem_state.cc:448: info: Increasing stack size by one page.
 Time step:      1  dt:    0.26805236261E-03
7514359383000: Event_144: system.switch_cpus progress event, total committed:2082797447, progress insts committed: 9204102, IPC: 0.460205
7524359383000: Event_144: system.switch_cpus progress event, total committed:2092411630, progress insts committed: 9614183, IPC: 0.480709
7534359383000: Event_144: system.switch_cpus progress event, total committed:2102130352, progress insts committed: 9718722, IPC: 0.485936
7544359383000: Event_144: system.switch_cpus progress event, total committed:2111809947, progress insts committed: 9679595, IPC: 00.48398
7554359383000: Event_144: system.switch_cpus progress event, total committed:2121461667, progress insts committed: 9651720, IPC: 0.482586
7564359383000: Event_144: system.switch_cpus progress event, total committed:2131102313, progress insts committed: 9640646, IPC: 0.482032
7574359383000: Event_144: system.switch_cpus progress event, total committed:2140752760, progress insts committed: 9650447, IPC: 0.482522
7584359383000: Event_144: system.switch_cpus progress event, total committed:2150407672, progress insts committed: 9654912, IPC: 0.482746
7594359383000: Event_144: system.switch_cpus progress event, total committed:2160046358, progress insts committed: 9638686, IPC: 0.481934
7604359383000: Event_144: system.switch_cpus progress event, total committed:2169673423, progress insts committed: 9627065, IPC: 0.481353
7614359383000: Event_144: system.switch_cpus progress event, total committed:2179306254, progress insts committed: 9632831, IPC: 0.481642
7624359383000: Event_144: system.switch_cpus progress event, total committed:2188960130, progress insts committed: 9653876, IPC: 0.482694
7634359383000: Event_144: system.switch_cpus progress event, total committed:2198597431, progress insts committed: 9637301, IPC: 0.481865
7644359383000: Event_144: system.switch_cpus progress event, total committed:2208233060, progress insts committed: 9635629, IPC: 0.481781
7654359383000: Event_144: system.switch_cpus progress event, total committed:2217879979, progress insts committed: 9646919, IPC: 0.482346
7664359383000: Event_144: system.switch_cpus progress event, total committed:2227528511, progress insts committed: 9648532, IPC: 0.482427
7674359383000: Event_144: system.switch_cpus progress event, total committed:2237152678, progress insts committed: 9624167, IPC: 0.481208
7684359383000: Event_144: system.switch_cpus progress event, total committed:2246795143, progress insts committed: 9642465, IPC: 0.482123
7694359383000: Event_144: system.switch_cpus progress event, total committed:2256439362, progress insts committed: 9644219, IPC: 0.482211
7704359383000: Event_144: system.switch_cpus progress event, total committed:2266080153, progress insts committed: 9640791, IPC: 00.48204
7714359383000: Event_144: system.switch_cpus progress event, total committed:2275734228, progress insts committed: 9654075, IPC: 0.482704
7724359383000: Event_144: system.switch_cpus progress event, total committed:2285378058, progress insts committed: 9643830, IPC: 0.482191
7734359383000: Event_144: system.switch_cpus progress event, total committed:2295034690, progress insts committed: 9656632, IPC: 0.482832
7744359383000: Event_144: system.switch_cpus progress event, total committed:2304678044, progress insts committed: 9643354, IPC: 0.482168
7754359383000: Event_144: system.switch_cpus progress event, total committed:2314312911, progress insts committed: 9634867, IPC: 0.481743
7764359383000: Event_144: system.switch_cpus progress event, total committed:2323967496, progress insts committed: 9654585, IPC: 0.482729
7774359383000: Event_144: system.switch_cpus progress event, total committed:2333608987, progress insts committed: 9641491, IPC: 0.482075
7784359383000: Event_144: system.switch_cpus progress event, total committed:2343253382, progress insts committed: 9644395, IPC: 00.48222
7794359383000: Event_144: system.switch_cpus progress event, total committed:2352892340, progress insts committed: 9638958, IPC: 0.481948
7804359383000: Event_144: system.switch_cpus progress event, total committed:2362541108, progress insts committed: 9648768, IPC: 0.482438
7814359383000: Event_144: system.switch_cpus progress event, total committed:2372162738, progress insts committed: 9621630, IPC: 0.481081
7824359383000: Event_144: system.switch_cpus progress event, total committed:2381808788, progress insts committed: 9646050, IPC: 0.482303
7834359383000: Event_144: system.switch_cpus progress event, total committed:2391466422, progress insts committed: 9657634, IPC: 0.482882
7844359383000: Event_144: system.switch_cpus progress event, total committed:2401098226, progress insts committed: 9631804, IPC: 00.48159
7854359383000: Event_144: system.switch_cpus progress event, total committed:2410733962, progress insts committed: 9635736, IPC: 0.481787
7864359383000: Event_144: system.switch_cpus progress event, total committed:2420376772, progress insts committed: 9642810, IPC: 0.482141
7874359383000: Event_144: system.switch_cpus progress event, total committed:2430007878, progress insts committed: 9631106, IPC: 0.481555
7884359383000: Event_144: system.switch_cpus progress event, total committed:2439641258, progress insts committed: 9633380, IPC: 0.481669
7894359383000: Event_144: system.switch_cpus progress event, total committed:2449282799, progress insts committed: 9641541, IPC: 0.482077
7904359383000: Event_144: system.switch_cpus progress event, total committed:2456885351, progress insts committed: 7602552, IPC: 0.380128
7914359383000: Event_144: system.switch_cpus progress event, total committed:2464746024, progress insts committed: 7860673, IPC: 0.393034
7924359383000: Event_144: system.switch_cpus progress event, total committed:2472633338, progress insts committed: 7887314, IPC: 0.394366
7934359383000: Event_144: system.switch_cpus progress event, total committed:2480519122, progress insts committed: 7885784, IPC: 0.394289
7944359383000: Event_144: system.switch_cpus progress event, total committed:2488412255, progress insts committed: 7893133, IPC: 0.394657
7954359383000: Event_144: system.switch_cpus progress event, total committed:2496307489, progress insts committed: 7895234, IPC: 0.394762
7964359383000: Event_144: system.switch_cpus progress event, total committed:2504205014, progress insts committed: 7897525, IPC: 0.394876
7974359383000: Event_144: system.switch_cpus progress event, total committed:2512096596, progress insts committed: 7891582, IPC: 0.394579
7984359383000: Event_144: system.switch_cpus progress event, total committed:2519986470, progress insts committed: 7889874, IPC: 0.394494
7994359383000: Event_144: system.switch_cpus progress event, total committed:2527881219, progress insts committed: 7894749, IPC: 0.394737
8004359383000: Event_144: system.switch_cpus progress event, total committed:2535770769, progress insts committed: 7889550, IPC: 0.394477
8014359383000: Event_144: system.switch_cpus progress event, total committed:2543661347, progress insts committed: 7890578, IPC: 0.394529
8024359383000: Event_144: system.switch_cpus progress event, total committed:2551554066, progress insts committed: 7892719, IPC: 0.394636
8034359383000: Event_144: system.switch_cpus progress event, total committed:2559444570, progress insts committed: 7890504, IPC: 0.394525
8044359383000: Event_144: system.switch_cpus progress event, total committed:2567336306, progress insts committed: 7891736, IPC: 0.394587
8054359383000: Event_144: system.switch_cpus progress event, total committed:2575231466, progress insts committed: 7895160, IPC: 0.394758
8064359383000: Event_144: system.switch_cpus progress event, total committed:2583125000, progress insts committed: 7893534, IPC: 0.394677
8074359383000: Event_144: system.switch_cpus progress event, total committed:2591022152, progress insts committed: 7897152, IPC: 0.394858
8084359383000: Event_144: system.switch_cpus progress event, total committed:2598913883, progress insts committed: 7891731, IPC: 0.394587
8094359383000: Event_144: system.switch_cpus progress event, total committed:2606805170, progress insts committed: 7891287, IPC: 0.394564
8104359383000: Event_144: system.switch_cpus progress event, total committed:2614694549, progress insts committed: 7889379, IPC: 0.394469
8114359383000: Event_144: system.switch_cpus progress event, total committed:2622581996, progress insts committed: 7887447, IPC: 0.394372
8124359383000: Event_144: system.switch_cpus progress event, total committed:2630472404, progress insts committed: 7890408, IPC: 00.39452
8134359383000: Event_144: system.switch_cpus progress event, total committed:2638365903, progress insts committed: 7893499, IPC: 0.394675
8144359383000: Event_144: system.switch_cpus progress event, total committed:2646255821, progress insts committed: 7889918, IPC: 0.394496
8154359383000: Event_144: system.switch_cpus progress event, total committed:2654145951, progress insts committed: 7890130, IPC: 0.394506
8164359383000: Event_144: system.switch_cpus progress event, total committed:2662035774, progress insts committed: 7889823, IPC: 0.394491
8174359383000: Event_144: system.switch_cpus progress event, total committed:2669926395, progress insts committed: 7890621, IPC: 0.394531
8184359383000: Event_144: system.switch_cpus progress event, total committed:2677818664, progress insts committed: 7892269, IPC: 0.394613
8194359383000: Event_144: system.switch_cpus progress event, total committed:2685708484, progress insts committed: 7889820, IPC: 0.394491
8204359383000: Event_144: system.switch_cpus progress event, total committed:2693598717, progress insts committed: 7890233, IPC: 0.394512
8214359383000: Event_144: system.switch_cpus progress event, total committed:2701489783, progress insts committed: 7891066, IPC: 0.394553
8224359383000: Event_144: system.switch_cpus progress event, total committed:2709381172, progress insts committed: 7891389, IPC: 0.394569
8234359383000: Event_144: system.switch_cpus progress event, total committed:2717273112, progress insts committed: 7891940, IPC: 0.394597
8244359383000: Event_144: system.switch_cpus progress event, total committed:2725161857, progress insts committed: 7888745, IPC: 0.394437
8254359383000: Event_144: system.switch_cpus progress event, total committed:2733056933, progress insts committed: 7895076, IPC: 0.394754
8264359383000: Event_144: system.switch_cpus progress event, total committed:2740952325, progress insts committed: 7895392, IPC: 00.39477
8274359383000: Event_144: system.switch_cpus progress event, total committed:2748842121, progress insts committed: 7889796, IPC: 00.39449
8284359383000: Event_144: system.switch_cpus progress event, total committed:2756732678, progress insts committed: 7890557, IPC: 0.394528
8294359383000: Event_144: system.switch_cpus progress event, total committed:2764623674, progress insts committed: 7890996, IPC: 00.39455
8304359383000: Event_144: system.switch_cpus progress event, total committed:2772513460, progress insts committed: 7889786, IPC: 0.394489
8314359383000: Event_144: system.switch_cpus progress event, total committed:2780405537, progress insts committed: 7892077, IPC: 0.394604
8324359383000: Event_144: system.switch_cpus progress event, total committed:2788295482, progress insts committed: 7889945, IPC: 0.394497
8334359383000: Event_144: system.switch_cpus progress event, total committed:2796184670, progress insts committed: 7889188, IPC: 0.394459
8344359383000: Event_144: system.switch_cpus progress event, total committed:2804078219, progress insts committed: 7893549, IPC: 0.394677
8354359383000: Event_144: system.switch_cpus progress event, total committed:2811969623, progress insts committed: 7891404, IPC: 00.39457
8364359383000: Event_144: system.switch_cpus progress event, total committed:2819861914, progress insts committed: 7892291, IPC: 0.394615
8374359383000: Event_144: system.switch_cpus progress event, total committed:2827753018, progress insts committed: 7891104, IPC: 0.394555
8384359383000: Event_144: system.switch_cpus progress event, total committed:2835646471, progress insts committed: 7893453, IPC: 0.394673
8394359383000: Event_144: system.switch_cpus progress event, total committed:2843539862, progress insts committed: 7893391, IPC: 00.39467
8404359383000: Event_144: system.switch_cpus progress event, total committed:2851431811, progress insts committed: 7891949, IPC: 0.394597
8414359383000: Event_144: system.switch_cpus progress event, total committed:2859322597, progress insts committed: 7890786, IPC: 0.394539
8424359383000: Event_144: system.switch_cpus progress event, total committed:2867218599, progress insts committed: 7896002, IPC: 000.3948
8434359383000: Event_144: system.switch_cpus progress event, total committed:2875110890, progress insts committed: 7892291, IPC: 0.394615
8444359383000: Event_144: system.switch_cpus progress event, total committed:2883005029, progress insts committed: 7894139, IPC: 0.394707
8454359383000: Event_144: system.switch_cpus progress event, total committed:2890899929, progress insts committed: 7894900, IPC: 0.394745
8464359383000: Event_144: system.switch_cpus progress event, total committed:2898790506, progress insts committed: 7890577, IPC: 0.394529
8474359383000: Event_144: system.switch_cpus progress event, total committed:2906677742, progress insts committed: 7887236, IPC: 0.394362
8484359383000: Event_144: system.switch_cpus progress event, total committed:2914567729, progress insts committed: 7889987, IPC: 0.394499
8494359383000: Event_144: system.switch_cpus progress event, total committed:2922460719, progress insts committed: 7892990, IPC: 0.394649
8504359383000: Event_144: system.switch_cpus progress event, total committed:2930354929, progress insts committed: 7894210, IPC: 0.394711
8514359383000: Event_144: system.switch_cpus progress event, total committed:2938247914, progress insts committed: 7892985, IPC: 0.394649
8524359383000: Event_144: system.switch_cpus progress event, total committed:2946141483, progress insts committed: 7893569, IPC: 0.394678
8534359383000: Event_144: system.switch_cpus progress event, total committed:2954033978, progress insts committed: 7892495, IPC: 0.394625
8544359383000: Event_144: system.switch_cpus progress event, total committed:2961925316, progress insts committed: 7891338, IPC: 0.394567
8554359383000: Event_144: system.switch_cpus progress event, total committed:2969814744, progress insts committed: 7889428, IPC: 0.394471
8564359383000: Event_144: system.switch_cpus progress event, total committed:2977706162, progress insts committed: 7891418, IPC: 0.394571
8574359383000: Event_144: system.switch_cpus progress event, total committed:2985594146, progress insts committed: 7887984, IPC: 0.394399
8584359383000: Event_144: system.switch_cpus progress event, total committed:2993485156, progress insts committed: 7891010, IPC: 0.394551
8594359383000: Event_144: system.switch_cpus progress event, total committed:3001374840, progress insts committed: 7889684, IPC: 0.394484
8604359383000: Event_144: system.switch_cpus progress event, total committed:3009268890, progress insts committed: 7894050, IPC: 0.394703
8614359383000: Event_144: system.switch_cpus progress event, total committed:3017157319, progress insts committed: 7888429, IPC: 0.394421
8624359383000: Event_144: system.switch_cpus progress event, total committed:3025046074, progress insts committed: 7888755, IPC: 0.394438
8634359383000: Event_144: system.switch_cpus progress event, total committed:3032936004, progress insts committed: 7889930, IPC: 0.394497
8644359383000: Event_144: system.switch_cpus progress event, total committed:3040820855, progress insts committed: 7884851, IPC: 0.394243
8654359383000: Event_144: system.switch_cpus progress event, total committed:3048713992, progress insts committed: 7893137, IPC: 0.394657
8664359383000: Event_144: system.switch_cpus progress event, total committed:3056605977, progress insts committed: 7891985, IPC: 0.394599
8674359383000: Event_144: system.switch_cpus progress event, total committed:3064499890, progress insts committed: 7893913, IPC: 0.394696
8684359383000: Event_144: system.switch_cpus progress event, total committed:3072388757, progress insts committed: 7888867, IPC: 0.394443
8694359383000: Event_144: system.switch_cpus progress event, total committed:3080279648, progress insts committed: 7890891, IPC: 0.394545
8704359383000: Event_144: system.switch_cpus progress event, total committed:3088172780, progress insts committed: 7893132, IPC: 0.394657
8714359383000: Event_144: system.switch_cpus progress event, total committed:3096062761, progress insts committed: 7889981, IPC: 0.394499
8724359383000: Event_144: system.switch_cpus progress event, total committed:3103955486, progress insts committed: 7892725, IPC: 0.394636
8734359383000: Event_144: system.switch_cpus progress event, total committed:3111845959, progress insts committed: 7890473, IPC: 0.394524
8744359383000: Event_144: system.switch_cpus progress event, total committed:3119736070, progress insts committed: 7890111, IPC: 0.394506
8754359383000: Event_144: system.switch_cpus progress event, total committed:3127628186, progress insts committed: 7892116, IPC: 0.394606
8764359383000: Event_144: system.switch_cpus progress event, total committed:3135523200, progress insts committed: 7895014, IPC: 0.394751
8774359383000: Event_144: system.switch_cpus progress event, total committed:3143412521, progress insts committed: 7889321, IPC: 0.394466
8784359383000: Event_144: system.switch_cpus progress event, total committed:3151301642, progress insts committed: 7889121, IPC: 0.394456
8794359383000: Event_144: system.switch_cpus progress event, total committed:3159192992, progress insts committed: 7891350, IPC: 0.394568
8804359383000: Event_144: system.switch_cpus progress event, total committed:3167081621, progress insts committed: 7888629, IPC: 0.394431
8814359383000: Event_144: system.switch_cpus progress event, total committed:3174968047, progress insts committed: 7886426, IPC: 0.394321
8824359383000: Event_144: system.switch_cpus progress event, total committed:3182863094, progress insts committed: 7895047, IPC: 0.394752
8834359383000: Event_144: system.switch_cpus progress event, total committed:3190754928, progress insts committed: 7891834, IPC: 0.394592
8844359383000: Event_144: system.switch_cpus progress event, total committed:3198646543, progress insts committed: 7891615, IPC: 0.394581
8854359383000: Event_144: system.switch_cpus progress event, total committed:3206537680, progress insts committed: 7891137, IPC: 0.394557
8864359383000: Event_144: system.switch_cpus progress event, total committed:3214429737, progress insts committed: 7892057, IPC: 0.394603
8874359383000: Event_144: system.switch_cpus progress event, total committed:3222318622, progress insts committed: 7888885, IPC: 0.394444
8884359383000: Event_144: system.switch_cpus progress event, total committed:3230207571, progress insts committed: 7888949, IPC: 0.394447
8894359383000: Event_144: system.switch_cpus progress event, total committed:3238096841, progress insts committed: 7889270, IPC: 0.394464
8904359383000: Event_144: system.switch_cpus progress event, total committed:3245989650, progress insts committed: 7892809, IPC: 00.39464
8914359383000: Event_144: system.switch_cpus progress event, total committed:3253877829, progress insts committed: 7888179, IPC: 0.394409
8924359383000: Event_144: system.switch_cpus progress event, total committed:3261768851, progress insts committed: 7891022, IPC: 0.394551
8934359383000: Event_144: system.switch_cpus progress event, total committed:3269657407, progress insts committed: 7888556, IPC: 0.394428
8944359383000: Event_144: system.switch_cpus progress event, total committed:3277550000, progress insts committed: 7892593, IPC: 00.39463
8954359383000: Event_144: system.switch_cpus progress event, total committed:3285433686, progress insts committed: 7883686, IPC: 0.394184
8964359383000: Event_144: system.switch_cpus progress event, total committed:3293324723, progress insts committed: 7891037, IPC: 0.394552
8974359383000: Event_144: system.switch_cpus progress event, total committed:3301213548, progress insts committed: 7888825, IPC: 0.394441
8984359383000: Event_144: system.switch_cpus progress event, total committed:3309105960, progress insts committed: 7892412, IPC: 0.394621
8994359383000: Event_144: system.switch_cpus progress event, total committed:3316999180, progress insts committed: 7893220, IPC: 0.394661
9004359383000: Event_144: system.switch_cpus progress event, total committed:3324892924, progress insts committed: 7893744, IPC: 0.394687
9014359383000: Event_144: system.switch_cpus progress event, total committed:3332777312, progress insts committed: 7884388, IPC: 0.394219
9024359383000: Event_144: system.switch_cpus progress event, total committed:3340669348, progress insts committed: 7892036, IPC: 0.394602
9034359383000: Event_144: system.switch_cpus progress event, total committed:3348559972, progress insts committed: 7890624, IPC: 0.394531
9044359383000: Event_144: system.switch_cpus progress event, total committed:3356456311, progress insts committed: 7896339, IPC: 0.394817
9054359383000: Event_144: system.switch_cpus progress event, total committed:3364344162, progress insts committed: 7887851, IPC: 0.394393
9064359383000: Event_144: system.switch_cpus progress event, total committed:3372232717, progress insts committed: 7888555, IPC: 0.394428
9074359383000: Event_144: system.switch_cpus progress event, total committed:3380123425, progress insts committed: 7890708, IPC: 0.394535
9084359383000: Event_144: system.switch_cpus progress event, total committed:3388013390, progress insts committed: 7889965, IPC: 0.394498
9094359383000: Event_144: system.switch_cpus progress event, total committed:3395904206, progress insts committed: 7890816, IPC: 0.394541
9104359383000: Event_144: system.switch_cpus progress event, total committed:3403795164, progress insts committed: 7890958, IPC: 0.394548
9114359383000: Event_144: system.switch_cpus progress event, total committed:3411686123, progress insts committed: 7890959, IPC: 0.394548
9124359383000: Event_144: system.switch_cpus progress event, total committed:3419581735, progress insts committed: 7895612, IPC: 0.394781
9134359383000: Event_144: system.switch_cpus progress event, total committed:3427474372, progress insts committed: 7892637, IPC: 0.394632
9144359383000: Event_144: system.switch_cpus progress event, total committed:3435363914, progress insts committed: 7889542, IPC: 0.394477
9154359383000: Event_144: system.switch_cpus progress event, total committed:3443253190, progress insts committed: 7889276, IPC: 0.394464
9164359383000: Event_144: system.switch_cpus progress event, total committed:3451140872, progress insts committed: 7887682, IPC: 0.394384
9174359383000: Event_144: system.switch_cpus progress event, total committed:3459032439, progress insts committed: 7891567, IPC: 0.394578
9184359383000: Event_144: system.switch_cpus progress event, total committed:3466922152, progress insts committed: 7889713, IPC: 0.394486
9194359383000: Event_144: system.switch_cpus progress event, total committed:3474814768, progress insts committed: 7892616, IPC: 0.394631
9204359383000: Event_144: system.switch_cpus progress event, total committed:3482708486, progress insts committed: 7893718, IPC: 0.394686
9214359383000: Event_144: system.switch_cpus progress event, total committed:3490599747, progress insts committed: 7891261, IPC: 0.394563
9224359383000: Event_144: system.switch_cpus progress event, total committed:3498481758, progress insts committed: 7882011, IPC: 0.394101
9234359383000: Event_144: system.switch_cpus progress event, total committed:3506373562, progress insts committed: 7891804, IPC: 00.39459
9244359383000: Event_144: system.switch_cpus progress event, total committed:3514259971, progress insts committed: 7886409, IPC: 00.39432
9254359383000: Event_144: system.switch_cpus progress event, total committed:3522147142, progress insts committed: 7887171, IPC: 0.394359
9264359383000: Event_144: system.switch_cpus progress event, total committed:3530039162, progress insts committed: 7892020, IPC: 0.394601
9274359383000: Event_144: system.switch_cpus progress event, total committed:3537926596, progress insts committed: 7887434, IPC: 0.394372
9284359383000: Event_144: system.switch_cpus progress event, total committed:3545820396, progress insts committed: 7893800, IPC: 00.39469
9294359383000: Event_144: system.switch_cpus progress event, total committed:3553711194, progress insts committed: 7890798, IPC: 00.39454
9304359383000: Event_144: system.switch_cpus progress event, total committed:3561599803, progress insts committed: 7888609, IPC: 00.39443
9314359383000: Event_144: system.switch_cpus progress event, total committed:3569487689, progress insts committed: 7887886, IPC: 0.394394
9324359383000: Event_144: system.switch_cpus progress event, total committed:3577377793, progress insts committed: 7890104, IPC: 0.394505
9334359383000: Event_144: system.switch_cpus progress event, total committed:3585269641, progress insts committed: 7891848, IPC: 0.394592
9344359383000: Event_144: system.switch_cpus progress event, total committed:3593162573, progress insts committed: 7892932, IPC: 0.394647
9354359383000: Event_144: system.switch_cpus progress event, total committed:3601055166, progress insts committed: 7892593, IPC: 00.39463
9364359383000: Event_144: system.switch_cpus progress event, total committed:3608948008, progress insts committed: 7892842, IPC: 0.394642
9374359383000: Event_144: system.switch_cpus progress event, total committed:3616837156, progress insts committed: 7889148, IPC: 0.394457
9384359383000: Event_144: system.switch_cpus progress event, total committed:3624724399, progress insts committed: 7887243, IPC: 0.394362
9394359383000: Event_144: system.switch_cpus progress event, total committed:3632612978, progress insts committed: 7888579, IPC: 0.394429
9404359383000: Event_144: system.switch_cpus progress event, total committed:3640505750, progress insts committed: 7892772, IPC: 0.394639
9414359383000: Event_144: system.switch_cpus progress event, total committed:3648397282, progress insts committed: 7891532, IPC: 0.394577
9424359383000: Event_144: system.switch_cpus progress event, total committed:3656288903, progress insts committed: 7891621, IPC: 0.394581
9434359383000: Event_144: system.switch_cpus progress event, total committed:3664181861, progress insts committed: 7892958, IPC: 0.394648
9444359383000: Event_144: system.switch_cpus progress event, total committed:3672075405, progress insts committed: 7893544, IPC: 0.394677
9454359383000: Event_144: system.switch_cpus progress event, total committed:3679966009, progress insts committed: 7890604, IPC: 00.39453
9464359383000: Event_144: system.switch_cpus progress event, total committed:3687858121, progress insts committed: 7892112, IPC: 0.394606
9474359383000: Event_144: system.switch_cpus progress event, total committed:3695748120, progress insts committed: 7889999, IPC: 000.3945
9484359383000: Event_144: system.switch_cpus progress event, total committed:3703639380, progress insts committed: 7891260, IPC: 0.394563
9494359383000: Event_144: system.switch_cpus progress event, total committed:3711529393, progress insts committed: 7890013, IPC: 0.394501
9504359383000: Event_144: system.switch_cpus progress event, total committed:3719423565, progress insts committed: 7894172, IPC: 0.394709
9514359383000: Event_144: system.switch_cpus progress event, total committed:3727313476, progress insts committed: 7889911, IPC: 0.394496
9524359383000: Event_144: system.switch_cpus progress event, total committed:3735205444, progress insts committed: 7891968, IPC: 0.394598
9534359383000: Event_144: system.switch_cpus progress event, total committed:3743095533, progress insts committed: 7890089, IPC: 0.394504
9544359383000: Event_144: system.switch_cpus progress event, total committed:3750987570, progress insts committed: 7892037, IPC: 0.394602
9554359383000: Event_144: system.switch_cpus progress event, total committed:3758875484, progress insts committed: 7887914, IPC: 0.394396
9564359383000: Event_144: system.switch_cpus progress event, total committed:3766765526, progress insts committed: 7890042, IPC: 0.394502
9574359383000: Event_144: system.switch_cpus progress event, total committed:3774654627, progress insts committed: 7889101, IPC: 0.394455
9584359383000: Event_144: system.switch_cpus progress event, total committed:3782542055, progress insts committed: 7887428, IPC: 0.394371
9594359383000: Event_144: system.switch_cpus progress event, total committed:3790432670, progress insts committed: 7890615, IPC: 0.394531
9604359383000: Event_144: system.switch_cpus progress event, total committed:3798323670, progress insts committed: 7891000, IPC: 00.39455
9614359383000: Event_144: system.switch_cpus progress event, total committed:3806213463, progress insts committed: 7889793, IPC: 00.39449
9624359383000: Event_144: system.switch_cpus progress event, total committed:3814103976, progress insts committed: 7890513, IPC: 0.394526
9634359383000: Event_144: system.switch_cpus progress event, total committed:3821994186, progress insts committed: 7890210, IPC: 00.39451
9644359383000: Event_144: system.switch_cpus progress event, total committed:3829881810, progress insts committed: 7887624, IPC: 0.394381
9654359383000: Event_144: system.switch_cpus progress event, total committed:3837775286, progress insts committed: 7893476, IPC: 0.394674
9664359383000: Event_144: system.switch_cpus progress event, total committed:3845662610, progress insts committed: 7887324, IPC: 0.394366
9674359383000: Event_144: system.switch_cpus progress event, total committed:3853553590, progress insts committed: 7890980, IPC: 0.394549
9684359383000: Event_144: system.switch_cpus progress event, total committed:3861443075, progress insts committed: 7889485, IPC: 0.394474
9694359383000: Event_144: system.switch_cpus progress event, total committed:3869334432, progress insts committed: 7891357, IPC: 0.394568
9704359383000: Event_144: system.switch_cpus progress event, total committed:3877222360, progress insts committed: 7887928, IPC: 0.394396
9714359383000: Event_144: system.switch_cpus progress event, total committed:3885111682, progress insts committed: 7889322, IPC: 0.394466
9724359383000: Event_144: system.switch_cpus progress event, total committed:3892997341, progress insts committed: 7885659, IPC: 0.394283
9734359383000: Event_144: system.switch_cpus progress event, total committed:3900891462, progress insts committed: 7894121, IPC: 0.394706
9744359383000: Event_144: system.switch_cpus progress event, total committed:3908785063, progress insts committed: 7893601, IPC: 00.39468
9754359383000: Event_144: system.switch_cpus progress event, total committed:3916677898, progress insts committed: 7892835, IPC: 0.394642
9764359383000: Event_144: system.switch_cpus progress event, total committed:3924562266, progress insts committed: 7884368, IPC: 0.394218
9774359383000: Event_144: system.switch_cpus progress event, total committed:3932454705, progress insts committed: 7892439, IPC: 0.394622
9784359383000: Event_144: system.switch_cpus progress event, total committed:3940343496, progress insts committed: 7888791, IPC: 00.39444
9794359383000: Event_144: system.switch_cpus progress event, total committed:3948235620, progress insts committed: 7892124, IPC: 0.394606
9804359383000: Event_144: system.switch_cpus progress event, total committed:3956123652, progress insts committed: 7888032, IPC: 0.394402
9814359383000: Event_144: system.switch_cpus progress event, total committed:3964016089, progress insts committed: 7892437, IPC: 0.394622
9824359383000: Event_144: system.switch_cpus progress event, total committed:3971909048, progress insts committed: 7892959, IPC: 0.394648
9834359383000: Event_144: system.switch_cpus progress event, total committed:3979801454, progress insts committed: 7892406, IPC: 00.39462
9844359383000: Event_144: system.switch_cpus progress event, total committed:3987696320, progress insts committed: 7894866, IPC: 0.394743
9854359383000: Event_144: system.switch_cpus progress event, total committed:3995587286, progress insts committed: 7890966, IPC: 0.394548
9864359383000: Event_144: system.switch_cpus progress event, total committed:4003478454, progress insts committed: 7891168, IPC: 0.394558
9874359383000: Event_144: system.switch_cpus progress event, total committed:4011370002, progress insts committed: 7891548, IPC: 0.394577
9884359383000: Event_144: system.switch_cpus progress event, total committed:4019256486, progress insts committed: 7886484, IPC: 0.394324
9894359383000: Event_144: system.switch_cpus progress event, total committed:4027145763, progress insts committed: 7889277, IPC: 0.394464
9904359383000: Event_144: system.switch_cpus progress event, total committed:4035034783, progress insts committed: 7889020, IPC: 0.394451
9914359383000: Event_144: system.switch_cpus progress event, total committed:4042927786, progress insts committed: 7893003, IPC: 00.39465
9924359383000: Event_144: system.switch_cpus progress event, total committed:4050822771, progress insts committed: 7894985, IPC: 0.394749
9934359383000: Event_144: system.switch_cpus progress event, total committed:4058712886, progress insts committed: 7890115, IPC: 0.394506
9944359383000: Event_144: system.switch_cpus progress event, total committed:4066603287, progress insts committed: 7890401, IPC: 00.39452
9954359383000: Event_144: system.switch_cpus progress event, total committed:4074495580, progress insts committed: 7892293, IPC: 0.394615
9964359383000: Event_144: system.switch_cpus progress event, total committed:4082389449, progress insts committed: 7893869, IPC: 0.394693
9974359383000: Event_144: system.switch_cpus progress event, total committed:4090281456, progress insts committed: 7892007, IPC: 000.3946
9984359383000: Event_144: system.switch_cpus progress event, total committed:4098177017, progress insts committed: 7895561, IPC: 0.394778
9994359383000: Event_144: system.switch_cpus progress event, total committed:4106067038, progress insts committed: 7890021, IPC: 0.394501
10004359383000: Event_144: system.switch_cpus progress event, total committed:4113954144, progress insts committed: 7887106, IPC: 0.394355
10014359383000: Event_144: system.switch_cpus progress event, total committed:4121844919, progress insts committed: 7890775, IPC: 0.394539
10024359383000: Event_144: system.switch_cpus progress event, total committed:4129740839, progress insts committed: 7895920, IPC: 0.394796
10034359383000: Event_144: system.switch_cpus progress event, total committed:4137635170, progress insts committed: 7894331, IPC: 0.394717
10044359383000: Event_144: system.switch_cpus progress event, total committed:4145526450, progress insts committed: 7891280, IPC: 0.394564
10054359383000: Event_144: system.switch_cpus progress event, total committed:4153415873, progress insts committed: 7889423, IPC: 0.394471
10064359383000: Event_144: system.switch_cpus progress event, total committed:4161303007, progress insts committed: 7887134, IPC: 0.394357
10074359383000: Event_144: system.switch_cpus progress event, total committed:4169194156, progress insts committed: 7891149, IPC: 0.394557
10084359383000: Event_144: system.switch_cpus progress event, total committed:4177084428, progress insts committed: 7890272, IPC: 0.394514
10094359383000: Event_144: system.switch_cpus progress event, total committed:4184977107, progress insts committed: 7892679, IPC: 0.394634
10104359383000: Event_144: system.switch_cpus progress event, total committed:4192867002, progress insts committed: 7889895, IPC: 0.394495
10114359383000: Event_144: system.switch_cpus progress event, total committed:4200758322, progress insts committed: 7891320, IPC: 0.394566
10124359383000: Event_144: system.switch_cpus progress event, total committed:4208648632, progress insts committed: 7890310, IPC: 0.394516
10134359383000: Event_144: system.switch_cpus progress event, total committed:4216537736, progress insts committed: 7889104, IPC: 0.394455
10144359383000: Event_144: system.switch_cpus progress event, total committed:4224427714, progress insts committed: 7889978, IPC: 0.394499
10154359383000: Event_144: system.switch_cpus progress event, total committed:4232321840, progress insts committed: 7894126, IPC: 0.394706
10164359383000: Event_144: system.switch_cpus progress event, total committed:4240212540, progress insts committed: 7890700, IPC: 0.394535
10174359383000: Event_144: system.switch_cpus progress event, total committed:4248100600, progress insts committed: 7888060, IPC: 0.394403
10184359383000: Event_144: system.switch_cpus progress event, total committed:4255995293, progress insts committed: 7894693, IPC: 0.394735
10194359383000: Event_144: system.switch_cpus progress event, total committed:4263885877, progress insts committed: 7890584, IPC: 0.394529
10204359383000: Event_144: system.switch_cpus progress event, total committed:4271774190, progress insts committed: 7888313, IPC: 0.394416
10214359383000: Event_144: system.switch_cpus progress event, total committed:4279665879, progress insts committed: 7891689, IPC: 0.394584
10224359383000: Event_144: system.switch_cpus progress event, total committed:4287555144, progress insts committed: 7889265, IPC: 0.394463
10234359383000: Event_144: system.switch_cpus progress event, total committed:4295445373, progress insts committed: 7890229, IPC: 0.394511
10244359383000: Event_144: system.switch_cpus progress event, total committed:4303329724, progress insts committed: 7884351, IPC: 0.394218
10254359383000: Event_144: system.switch_cpus progress event, total committed:4311222854, progress insts committed: 7893130, IPC: 0.394657
10264359383000: Event_144: system.switch_cpus progress event, total committed:4319116763, progress insts committed: 7893909, IPC: 0.394695
10274359383000: Event_144: system.switch_cpus progress event, total committed:4327008478, progress insts committed: 7891715, IPC: 0.394586
10284359383000: Event_144: system.switch_cpus progress event, total committed:4334900065, progress insts committed: 7891587, IPC: 0.394579
10294359383000: Event_144: system.switch_cpus progress event, total committed:4342791674, progress insts committed: 7891609, IPC: 00.39458
10304359383000: Event_144: system.switch_cpus progress event, total committed:4350680934, progress insts committed: 7889260, IPC: 0.394463
10314359383000: Event_144: system.switch_cpus progress event, total committed:4358575186, progress insts committed: 7894252, IPC: 0.394713
10324359383000: Event_144: system.switch_cpus progress event, total committed:4366468834, progress insts committed: 7893648, IPC: 0.394682
10334359383000: Event_144: system.switch_cpus progress event, total committed:4374359334, progress insts committed: 7890500, IPC: 0.394525
10344359383000: Event_144: system.switch_cpus progress event, total committed:4382254254, progress insts committed: 7894920, IPC: 0.394746
10354359383000: Event_144: system.switch_cpus progress event, total committed:4390144005, progress insts committed: 7889751, IPC: 0.394488
10364359383000: Event_144: system.switch_cpus progress event, total committed:4398033832, progress insts committed: 7889827, IPC: 0.394491
10374359383000: Event_144: system.switch_cpus progress event, total committed:4405924775, progress insts committed: 7890943, IPC: 0.394547
10384359383000: Event_144: system.switch_cpus progress event, total committed:4413818518, progress insts committed: 7893743, IPC: 0.394687
10394359383000: Event_144: system.switch_cpus progress event, total committed:4421708353, progress insts committed: 7889835, IPC: 0.394492
10404359383000: Event_144: system.switch_cpus progress event, total committed:4429598836, progress insts committed: 7890483, IPC: 0.394524
10414359383000: Event_144: system.switch_cpus progress event, total committed:4437484132, progress insts committed: 7885296, IPC: 0.394265
10424359383000: Event_144: system.switch_cpus progress event, total committed:4445375620, progress insts committed: 7891488, IPC: 0.394574
10434359383000: Event_144: system.switch_cpus progress event, total committed:4453263377, progress insts committed: 7887757, IPC: 0.394388
10444359383000: Event_144: system.switch_cpus progress event, total committed:4461155444, progress insts committed: 7892067, IPC: 0.394603
10454359383000: Event_144: system.switch_cpus progress event, total committed:4469046103, progress insts committed: 7890659, IPC: 0.394533
10464359383000: Event_144: system.switch_cpus progress event, total committed:4476942021, progress insts committed: 7895918, IPC: 0.394796
10474359383000: Event_144: system.switch_cpus progress event, total committed:4484834322, progress insts committed: 7892301, IPC: 0.394615
10484359383000: Event_144: system.switch_cpus progress event, total committed:4492725570, progress insts committed: 7891248, IPC: 0.394562
10494359383000: Event_144: system.switch_cpus progress event, total committed:4500616257, progress insts committed: 7890687, IPC: 0.394534
10504359383000: Event_144: system.switch_cpus progress event, total committed:4508508471, progress insts committed: 7892214, IPC: 0.394611
10514359383000: Event_144: system.switch_cpus progress event, total committed:4516406117, progress insts committed: 7897646, IPC: 0.394882
10524359383000: Event_144: system.switch_cpus progress event, total committed:4524300172, progress insts committed: 7894055, IPC: 0.394703
10534359383000: Event_144: system.switch_cpus progress event, total committed:4532188799, progress insts committed: 7888627, IPC: 0.394431
10544359383000: Event_144: system.switch_cpus progress event, total committed:4540080820, progress insts committed: 7892021, IPC: 0.394601
10554359383000: Event_144: system.switch_cpus progress event, total committed:4547970108, progress insts committed: 7889288, IPC: 0.394464
10564359383000: Event_144: system.switch_cpus progress event, total committed:4555861409, progress insts committed: 7891301, IPC: 0.394565
10574359383000: Event_144: system.switch_cpus progress event, total committed:4563755915, progress insts committed: 7894506, IPC: 0.394725
10584359383000: Event_144: system.switch_cpus progress event, total committed:4571649335, progress insts committed: 7893420, IPC: 0.394671
10594359383000: Event_144: system.switch_cpus progress event, total committed:4579539087, progress insts committed: 7889752, IPC: 0.394488
10604359383000: Event_144: system.switch_cpus progress event, total committed:4587428340, progress insts committed: 7889253, IPC: 0.394463
10614359383000: Event_144: system.switch_cpus progress event, total committed:4595316154, progress insts committed: 7887814, IPC: 0.394391
10624359383000: Event_144: system.switch_cpus progress event, total committed:4603208267, progress insts committed: 7892113, IPC: 0.394606
10634359383000: Event_144: system.switch_cpus progress event, total committed:4611099614, progress insts committed: 7891347, IPC: 0.394567
10644359383000: Event_144: system.switch_cpus progress event, total committed:4618991015, progress insts committed: 7891401, IPC: 00.39457
10654359383000: Event_144: system.switch_cpus progress event, total committed:4626883486, progress insts committed: 7892471, IPC: 0.394624
10664359383000: Event_144: system.switch_cpus progress event, total committed:4634776489, progress insts committed: 7893003, IPC: 00.39465
10674359383000: Event_144: system.switch_cpus progress event, total committed:4642669255, progress insts committed: 7892766, IPC: 0.394638
10684359383000: Event_144: system.switch_cpus progress event, total committed:4650562687, progress insts committed: 7893432, IPC: 0.394672
10694359383000: Event_144: system.switch_cpus progress event, total committed:4658455875, progress insts committed: 7893188, IPC: 0.394659
10704359383000: Event_144: system.switch_cpus progress event, total committed:4666346788, progress insts committed: 7890913, IPC: 0.394546
10714359383000: Event_144: system.switch_cpus progress event, total committed:4674237494, progress insts committed: 7890706, IPC: 0.394535
10724359383000: Event_144: system.switch_cpus progress event, total committed:4682130902, progress insts committed: 7893408, IPC: 00.39467
10734359383000: Event_144: system.switch_cpus progress event, total committed:4690022470, progress insts committed: 7891568, IPC: 0.394578
10744359383000: Event_144: system.switch_cpus progress event, total committed:4697918472, progress insts committed: 7896002, IPC: 000.3948
10754359383000: Event_144: system.switch_cpus progress event, total committed:4705809161, progress insts committed: 7890689, IPC: 0.394534
10764359383000: Event_144: system.switch_cpus progress event, total committed:4713702025, progress insts committed: 7892864, IPC: 0.394643
10774359383000: Event_144: system.switch_cpus progress event, total committed:4721598133, progress insts committed: 7896108, IPC: 0.394805
10784359383000: Event_144: system.switch_cpus progress event, total committed:4729489458, progress insts committed: 7891325, IPC: 0.394566
10794359383000: Event_144: system.switch_cpus progress event, total committed:4737382166, progress insts committed: 7892708, IPC: 0.394635
10804359383000: Event_144: system.switch_cpus progress event, total committed:4745274981, progress insts committed: 7892815, IPC: 0.394641
10814359383000: Event_144: system.switch_cpus progress event, total committed:4753161486, progress insts committed: 7886505, IPC: 0.394325
10824359383000: Event_144: system.switch_cpus progress event, total committed:4761052315, progress insts committed: 7890829, IPC: 0.394541
10834359383000: Event_144: system.switch_cpus progress event, total committed:4768943463, progress insts committed: 7891148, IPC: 0.394557
10844359383000: Event_144: system.switch_cpus progress event, total committed:4776833473, progress insts committed: 7890010, IPC: 000.3945
10854359383000: Event_144: system.switch_cpus progress event, total committed:4784724048, progress insts committed: 7890575, IPC: 0.394529
10864359383000: Event_144: system.switch_cpus progress event, total committed:4792615522, progress insts committed: 7891474, IPC: 0.394574
10874359383000: Event_144: system.switch_cpus progress event, total committed:4800508031, progress insts committed: 7892509, IPC: 0.394625
10884359383000: Event_144: system.switch_cpus progress event, total committed:4808400182, progress insts committed: 7892151, IPC: 0.394608
10894359383000: Event_144: system.switch_cpus progress event, total committed:4816297204, progress insts committed: 7897022, IPC: 0.394851
10904359383000: Event_144: system.switch_cpus progress event, total committed:4824183096, progress insts committed: 7885892, IPC: 0.394295
10914359383000: Event_144: system.switch_cpus progress event, total committed:4832077451, progress insts committed: 7894355, IPC: 0.394718
10924359383000: Event_144: system.switch_cpus progress event, total committed:4839965806, progress insts committed: 7888355, IPC: 0.394418
10934359383000: Event_144: system.switch_cpus progress event, total committed:4847861956, progress insts committed: 7896150, IPC: 0.394807
10944359383000: Event_144: system.switch_cpus progress event, total committed:4855753991, progress insts committed: 7892035, IPC: 0.394602
10954359383000: Event_144: system.switch_cpus progress event, total committed:4863644751, progress insts committed: 7890760, IPC: 0.394538
10964359383000: Event_144: system.switch_cpus progress event, total committed:4871534423, progress insts committed: 7889672, IPC: 0.394484
10974359383000: Event_144: system.switch_cpus progress event, total committed:4879428030, progress insts committed: 7893607, IPC: 00.39468
10984359383000: Event_144: system.switch_cpus progress event, total committed:4887318825, progress insts committed: 7890795, IPC: 00.39454
10994359383000: Event_144: system.switch_cpus progress event, total committed:4895208060, progress insts committed: 7889235, IPC: 0.394462
11004359383000: Event_144: system.switch_cpus progress event, total committed:4903097705, progress insts committed: 7889645, IPC: 0.394482
11014359383000: Event_144: system.switch_cpus progress event, total committed:4910985241, progress insts committed: 7887536, IPC: 0.394377
11024359383000: Event_144: system.switch_cpus progress event, total committed:4918690016, progress insts committed: 7704775, IPC: 0.385239
11034359383000: Event_144: system.switch_cpus progress event, total committed:4926187201, progress insts committed: 7497185, IPC: 0.374859
11044359383000: Event_144: system.switch_cpus progress event, total committed:4933651040, progress insts committed: 7463839, IPC: 0.373192
11054359383000: Event_144: system.switch_cpus progress event, total committed:4941112923, progress insts committed: 7461883, IPC: 0.373094
11064359383000: Event_144: system.switch_cpus progress event, total committed:4948571979, progress insts committed: 7459056, IPC: 0.372953
11074359383000: Event_144: system.switch_cpus progress event, total committed:4956029890, progress insts committed: 7457911, IPC: 0.372896
11084359383000: Event_144: system.switch_cpus progress event, total committed:4963491626, progress insts committed: 7461736, IPC: 0.373087
11094359383000: Event_144: system.switch_cpus progress event, total committed:4970949237, progress insts committed: 7457611, IPC: 0.372881
11104359383000: Event_144: system.switch_cpus progress event, total committed:4978409334, progress insts committed: 7460097, IPC: 0.373005
11114359383000: Event_144: system.switch_cpus progress event, total committed:4985867677, progress insts committed: 7458343, IPC: 0.372917
11124359383000: Event_144: system.switch_cpus progress event, total committed:4993330492, progress insts committed: 7462815, IPC: 0.373141
11134359383000: Event_144: system.switch_cpus progress event, total committed:5000793092, progress insts committed: 7462600, IPC: 00.37313
11144359383000: Event_144: system.switch_cpus progress event, total committed:5008253370, progress insts committed: 7460278, IPC: 0.373014
11154359383000: Event_144: system.switch_cpus progress event, total committed:5015710329, progress insts committed: 7456959, IPC: 0.372848
11164359383000: Event_144: system.switch_cpus progress event, total committed:5023174102, progress insts committed: 7463773, IPC: 0.373189
11174359383000: Event_144: system.switch_cpus progress event, total committed:5030636415, progress insts committed: 7462313, IPC: 0.373116
11184359383000: Event_144: system.switch_cpus progress event, total committed:5038095664, progress insts committed: 7459249, IPC: 0.372962
11194359383000: Event_144: system.switch_cpus progress event, total committed:5045557832, progress insts committed: 7462168, IPC: 0.373108
11204359383000: Event_144: system.switch_cpus progress event, total committed:5053020761, progress insts committed: 7462929, IPC: 0.373146
11214359383000: Event_144: system.switch_cpus progress event, total committed:5060479448, progress insts committed: 7458687, IPC: 0.372934
11224359383000: Event_144: system.switch_cpus progress event, total committed:5067938930, progress insts committed: 7459482, IPC: 0.372974
11234359383000: Event_144: system.switch_cpus progress event, total committed:5075404343, progress insts committed: 7465413, IPC: 0.373271
11244359383000: Event_144: system.switch_cpus progress event, total committed:5082866806, progress insts committed: 7462463, IPC: 0.373123
11254359383000: Event_144: system.switch_cpus progress event, total committed:5090329312, progress insts committed: 7462506, IPC: 0.373125
11264359383000: Event_144: system.switch_cpus progress event, total committed:5097791210, progress insts committed: 7461898, IPC: 0.373095
    0.11557376220        0.10000000000E-02
11274359383000: Event_144: system.switch_cpus progress event, total committed:5105504593, progress insts committed: 7713383, IPC: 0.385669
11284359383000: Event_144: system.switch_cpus progress event, total committed:5116967879, progress insts committed: 11463286, IPC: 0.573164
11294359383000: Event_144: system.switch_cpus progress event, total committed:5128799272, progress insts committed: 11831393, IPC: 00.59157
11304359383000: Event_144: system.switch_cpus progress event, total committed:5140642967, progress insts committed: 11843695, IPC: 0.592185
11314359383000: Event_144: system.switch_cpus progress event, total committed:5152488815, progress insts committed: 11845848, IPC: 0.592292
11324359383000: Event_144: system.switch_cpus progress event, total committed:5164336043, progress insts committed: 11847228, IPC: 0.592361
11334359383000: Event_144: system.switch_cpus progress event, total committed:5176184727, progress insts committed: 11848684, IPC: 0.592434
11344359383000: Event_144: system.switch_cpus progress event, total committed:5188029559, progress insts committed: 11844832, IPC: 0.592242
11354359383000: Event_144: system.switch_cpus progress event, total committed:5199878684, progress insts committed: 11849125, IPC: 0.592456
11364359383000: Event_144: system.switch_cpus progress event, total committed:5211727505, progress insts committed: 11848821, IPC: 0.592441
11374359383000: Event_144: system.switch_cpus progress event, total committed:5223572332, progress insts committed: 11844827, IPC: 0.592241
11384359383000: Event_144: system.switch_cpus progress event, total committed:5235420557, progress insts committed: 11848225, IPC: 0.592411
11394359383000: Event_144: system.switch_cpus progress event, total committed:5240779620, progress insts committed: 5359063, IPC: 0.267953
11404359383000: Event_144: system.switch_cpus progress event, total committed:5245459492, progress insts committed: 4679872, IPC: 0.233994
11414359383000: Event_144: system.switch_cpus progress event, total committed:5250131252, progress insts committed: 4671760, IPC: 0.233588
11424359383000: Event_144: system.switch_cpus progress event, total committed:5254802332, progress insts committed: 4671080, IPC: 0.233554
11434359383000: Event_144: system.switch_cpus progress event, total committed:5259470726, progress insts committed: 4668394, IPC: 00.23342
11444359383000: Event_144: system.switch_cpus progress event, total committed:5264140082, progress insts committed: 4669356, IPC: 0.233468
11454359383000: Event_144: system.switch_cpus progress event, total committed:5268809703, progress insts committed: 4669621, IPC: 0.233481
11464359383000: Event_144: system.switch_cpus progress event, total committed:5273477791, progress insts committed: 4668088, IPC: 0.233404
11474359383000: Event_144: system.switch_cpus progress event, total committed:5278146028, progress insts committed: 4668237, IPC: 0.233412
11484359383000: Event_144: system.switch_cpus progress event, total committed:5282815381, progress insts committed: 4669353, IPC: 0.233468
11494359383000: Event_144: system.switch_cpus progress event, total committed:5287486242, progress insts committed: 4670861, IPC: 0.233543
11504359383000: Event_144: system.switch_cpus progress event, total committed:5292155551, progress insts committed: 4669309, IPC: 0.233465
11514359383000: Event_144: system.switch_cpus progress event, total committed:5296824418, progress insts committed: 4668867, IPC: 0.233443
11524359383000: Event_144: system.switch_cpus progress event, total committed:5301495985, progress insts committed: 4671567, IPC: 0.233578
11534359383000: Event_144: system.switch_cpus progress event, total committed:5306165531, progress insts committed: 4669546, IPC: 0.233477
11544359383000: Event_144: system.switch_cpus progress event, total committed:5310835051, progress insts committed: 4669520, IPC: 0.233476
11554359383000: Event_144: system.switch_cpus progress event, total committed:5315504845, progress insts committed: 4669794, IPC: 00.23349
[...]
16364359383000: Event_144: system.switch_cpus progress event, total committed:9033281830, progress insts committed: 7894879, IPC: 0.394744
16374359383000: Event_144: system.switch_cpus progress event, total committed:9041175335, progress insts committed: 7893505, IPC: 0.394675
16384359383000: Event_144: system.switch_cpus progress event, total committed:9049072646, progress insts committed: 7897311, IPC: 0.394866
16394359383000: Event_144: system.switch_cpus progress event, total committed:9056975210, progress insts committed: 7902564, IPC: 0.395128
16404359383000: Event_144: system.switch_cpus progress event, total committed:9064870633, progress insts committed: 7895423, IPC: 0.394771
16414359383000: Event_144: system.switch_cpus progress event, total committed:9072767104, progress insts committed: 7896471, IPC: 0.394824
16424359383000: Event_144: system.switch_cpus progress event, total committed:9080663311, progress insts committed: 7896207, IPC: 00.39481
16434359383000: Event_144: system.switch_cpus progress event, total committed:9088562278, progress insts committed: 7898967, IPC: 0.394948
16444359383000: Event_144: system.switch_cpus progress event, total committed:9096455780, progress insts committed: 7893502, IPC: 0.394675
16454359383000: Event_144: system.switch_cpus progress event, total committed:9104354740, progress insts committed: 7898960, IPC: 0.394948
16464359383000: Event_144: system.switch_cpus progress event, total committed:9112255342, progress insts committed: 7900602, IPC: 00.39503
16474359383000: Event_144: system.switch_cpus progress event, total committed:9120150538, progress insts committed: 7895196, IPC: 00.39476
16484359383000: Event_144: system.switch_cpus progress event, total committed:9128050364, progress insts committed: 7899826, IPC: 0.394991
16494359383000: Event_144: system.switch_cpus progress event, total committed:9135945845, progress insts committed: 7895481, IPC: 0.394774
16504359383000: Event_144: system.switch_cpus progress event, total committed:9143839268, progress insts committed: 7893423, IPC: 0.394671
16514359383000: Event_144: system.switch_cpus progress event, total committed:9151733485, progress insts committed: 7894217, IPC: 0.394711
16524359383000: Event_144: system.switch_cpus progress event, total committed:9159631343, progress insts committed: 7897858, IPC: 0.394893
16534359383000: Event_144: system.switch_cpus progress event, total committed:9167528667, progress insts committed: 7897324, IPC: 0.394866
16544359383000: Event_144: system.switch_cpus progress event, total committed:9175425624, progress insts committed: 7896957, IPC: 0.394848
16554359383000: Event_144: system.switch_cpus progress event, total committed:9183322425, progress insts committed: 7896801, IPC: 00.39484
16564359383000: Event_144: system.switch_cpus progress event, total committed:9191221213, progress insts committed: 7898788, IPC: 0.394939
16574359383000: Event_144: system.switch_cpus progress event, total committed:9199119045, progress insts committed: 7897832, IPC: 0.394892
16584359383000: Event_144: system.switch_cpus progress event, total committed:9207015165, progress insts committed: 7896120, IPC: 0.394806
16594359383000: Event_144: system.switch_cpus progress event, total committed:9214911527, progress insts committed: 7896362, IPC: 0.394818
16604359383000: Event_144: system.switch_cpus progress event, total committed:9222806363, progress insts committed: 7894836, IPC: 0.394742
16614359383000: Event_144: system.switch_cpus progress event, total committed:9230701805, progress insts committed: 7895442, IPC: 0.394772
16624359383000: Event_144: system.switch_cpus progress event, total committed:9238605762, progress insts committed: 7903957, IPC: 0.395198
16634359383000: Event_144: system.switch_cpus progress event, total committed:9246504686, progress insts committed: 7898924, IPC: 0.394946
16644359383000: Event_144: system.switch_cpus progress event, total committed:9254402586, progress insts committed: 7897900, IPC: 0.394895
16654359383000: Event_144: system.switch_cpus progress event, total committed:9262296304, progress insts committed: 7893718, IPC: 0.394686
16664359383000: Event_144: system.switch_cpus progress event, total committed:9270195440, progress insts committed: 7899136, IPC: 0.394957
16674359383000: Event_144: system.switch_cpus progress event, total committed:9278091533, progress insts committed: 7896093, IPC: 0.394805
16684359383000: Event_144: system.switch_cpus progress event, total committed:9285991562, progress insts committed: 7900029, IPC: 0.395001
16694359383000: Event_144: system.switch_cpus progress event, total committed:9293887173, progress insts committed: 7895611, IPC: 0.394781
16704359383000: Event_144: system.switch_cpus progress event, total committed:9301783018, progress insts committed: 7895845, IPC: 0.394792
16714359383000: Event_144: system.switch_cpus progress event, total committed:9309682030, progress insts committed: 7899012, IPC: 0.394951
16724359383000: Event_144: system.switch_cpus progress event, total committed:9317580670, progress insts committed: 7898640, IPC: 0.394932
16734359383000: Event_144: system.switch_cpus progress event, total committed:9325476170, progress insts committed: 7895500, IPC: 0.394775
16744359383000: Event_144: system.switch_cpus progress event, total committed:9333371995, progress insts committed: 7895825, IPC: 0.394791
16754359383000: Event_144: system.switch_cpus progress event, total committed:9341270356, progress insts committed: 7898361, IPC: 0.394918
16764359383000: Event_144: system.switch_cpus progress event, total committed:9349169394, progress insts committed: 7899038, IPC: 0.394952
16774359383000: Event_144: system.switch_cpus progress event, total committed:9357067653, progress insts committed: 7898259, IPC: 0.394913
16784359383000: Event_144: system.switch_cpus progress event, total committed:9364968923, progress insts committed: 7901270, IPC: 0.395064
16794359383000: Event_144: system.switch_cpus progress event, total committed:9372863595, progress insts committed: 7894672, IPC: 0.394734
16804359383000: Event_144: system.switch_cpus progress event, total committed:9380763665, progress insts committed: 7900070, IPC: 0.395004
16814359383000: Event_144: system.switch_cpus progress event, total committed:9388660992, progress insts committed: 7897327, IPC: 0.394866
16824359383000: Event_144: system.switch_cpus progress event, total committed:9396559147, progress insts committed: 7898155, IPC: 0.394908
16834359383000: Event_144: system.switch_cpus progress event, total committed:9404454308, progress insts committed: 7895161, IPC: 0.394758
16844359383000: Event_144: system.switch_cpus progress event, total committed:9412353660, progress insts committed: 7899352, IPC: 0.394968
16854359383000: Event_144: system.switch_cpus progress event, total committed:9420249520, progress insts committed: 7895860, IPC: 0.394793
16864359383000: Event_144: system.switch_cpus progress event, total committed:9428146047, progress insts committed: 7896527, IPC: 0.394826
16874359383000: Event_144: system.switch_cpus progress event, total committed:9436040651, progress insts committed: 7894604, IPC: 00.39473
16884359383000: Event_144: system.switch_cpus progress event, total committed:9443938856, progress insts committed: 7898205, IPC: 00.39491
16894359383000: Event_144: system.switch_cpus progress event, total committed:9451829862, progress insts committed: 7891006, IPC: 00.39455
16904359383000: Event_144: system.switch_cpus progress event, total committed:9459727714, progress insts committed: 7897852, IPC: 0.394893
16914359383000: Event_144: system.switch_cpus progress event, total committed:9467627194, progress insts committed: 7899480, IPC: 0.394974
16924359383000: Event_144: system.switch_cpus progress event, total committed:9475521333, progress insts committed: 7894139, IPC: 0.394707
16934359383000: Event_144: system.switch_cpus progress event, total committed:9483418226, progress insts committed: 7896893, IPC: 0.394845
16944359383000: Event_144: system.switch_cpus progress event, total committed:9491310727, progress insts committed: 7892501, IPC: 0.394625
16954359383000: Event_144: system.switch_cpus progress event, total committed:9499212509, progress insts committed: 7901782, IPC: 0.395089
16964359383000: Event_144: system.switch_cpus progress event, total committed:9507109947, progress insts committed: 7897438, IPC: 0.394872
16974359383000: Event_144: system.switch_cpus progress event, total committed:9515005231, progress insts committed: 7895284, IPC: 0.394764
16984359383000: Event_144: system.switch_cpus progress event, total committed:9522902110, progress insts committed: 7896879, IPC: 0.394844
16994359383000: Event_144: system.switch_cpus progress event, total committed:9530803862, progress insts committed: 7901752, IPC: 0.395088
17004359383000: Event_144: system.switch_cpus progress event, total committed:9538700250, progress insts committed: 7896388, IPC: 0.394819
17014359383000: Event_144: system.switch_cpus progress event, total committed:9546600432, progress insts committed: 7900182, IPC: 0.395009
17024359383000: Event_144: system.switch_cpus progress event, total committed:9554500144, progress insts committed: 7899712, IPC: 0.394986
17034359383000: Event_144: system.switch_cpus progress event, total committed:9562395973, progress insts committed: 7895829, IPC: 0.394791
17044359383000: Event_144: system.switch_cpus progress event, total committed:9570289406, progress insts committed: 7893433, IPC: 0.394672
17054359383000: Event_144: system.switch_cpus progress event, total committed:9578192086, progress insts committed: 7902680, IPC: 0.395134
17064359383000: Event_144: system.switch_cpus progress event, total committed:9586089869, progress insts committed: 7897783, IPC: 0.394889
17074359383000: Event_144: system.switch_cpus progress event, total committed:9593986009, progress insts committed: 7896140, IPC: 0.394807
17084359383000: Event_144: system.switch_cpus progress event, total committed:9601886211, progress insts committed: 7900202, IPC: 00.39501
17094359383000: Event_144: system.switch_cpus progress event, total committed:9609784787, progress insts committed: 7898576, IPC: 0.394929
17104359383000: Event_144: system.switch_cpus progress event, total committed:9617680989, progress insts committed: 7896202, IPC: 00.39481
17114359383000: Event_144: system.switch_cpus progress event, total committed:9625582728, progress insts committed: 7901739, IPC: 0.395087
17124359383000: Event_144: system.switch_cpus progress event, total committed:9633479150, progress insts committed: 7896422, IPC: 0.394821
17134359383000: Event_144: system.switch_cpus progress event, total committed:9641374860, progress insts committed: 7895710, IPC: 0.394786
17144359383000: Event_144: system.switch_cpus progress event, total committed:9649274929, progress insts committed: 7900069, IPC: 0.395003
17154359383000: Event_144: system.switch_cpus progress event, total committed:9657171949, progress insts committed: 7897020, IPC: 0.394851
17164359383000: Event_144: system.switch_cpus progress event, total committed:9665063410, progress insts committed: 7891461, IPC: 0.394573
17174359383000: Event_144: system.switch_cpus progress event, total committed:9672964872, progress insts committed: 7901462, IPC: 0.395073
17184359383000: Event_144: system.switch_cpus progress event, total committed:9680864643, progress insts committed: 7899771, IPC: 0.394989
17194359383000: Event_144: system.switch_cpus progress event, total committed:9688760803, progress insts committed: 7896160, IPC: 0.394808
17204359383000: Event_144: system.switch_cpus progress event, total committed:9696661211, progress insts committed: 7900408, IPC: 00.39502
17214359383000: Event_144: system.switch_cpus progress event, total committed:9704558257, progress insts committed: 7897046, IPC: 0.394852
17224359383000: Event_144: system.switch_cpus progress event, total committed:9712452905, progress insts committed: 7894648, IPC: 0.394732
17234359383000: Event_144: system.switch_cpus progress event, total committed:9720351945, progress insts committed: 7899040, IPC: 0.394952
17244359383000: Event_144: system.switch_cpus progress event, total committed:9728251295, progress insts committed: 7899350, IPC: 0.394968
17254359383000: Event_144: system.switch_cpus progress event, total committed:9736147801, progress insts committed: 7896506, IPC: 0.394825
17264359383000: Event_144: system.switch_cpus progress event, total committed:9744046768, progress insts committed: 7898967, IPC: 0.394948
17274359383000: Event_144: system.switch_cpus progress event, total committed:9751938860, progress insts committed: 7892092, IPC: 0.394605
17284359383000: Event_144: system.switch_cpus progress event, total committed:9759836407, progress insts committed: 7897547, IPC: 0.394877
17294359383000: Event_144: system.switch_cpus progress event, total committed:9767736390, progress insts committed: 7899983, IPC: 0.394999
17304359383000: Event_144: system.switch_cpus progress event, total committed:9775629567, progress insts committed: 7893177, IPC: 0.394659
17314359383000: Event_144: system.switch_cpus progress event, total committed:9783524134, progress insts committed: 7894567, IPC: 0.394728
17324359383000: Event_144: system.switch_cpus progress event, total committed:9791422409, progress insts committed: 7898275, IPC: 0.394914
17334359383000: Event_144: system.switch_cpus progress event, total committed:9799320348, progress insts committed: 7897939, IPC: 0.394897
17344359383000: Event_144: system.switch_cpus progress event, total committed:9807222589, progress insts committed: 7902241, IPC: 0.395112
17354359383000: Event_144: system.switch_cpus progress event, total committed:9815116409, progress insts committed: 7893820, IPC: 0.394691
17364359383000: Event_144: system.switch_cpus progress event, total committed:9823013110, progress insts committed: 7896701, IPC: 0.394835
17374359383000: Event_144: system.switch_cpus progress event, total committed:9830914092, progress insts committed: 7900982, IPC: 0.395049
17384359383000: Event_144: system.switch_cpus progress event, total committed:9838811956, progress insts committed: 7897864, IPC: 0.394893
17394359383000: Event_144: system.switch_cpus progress event, total committed:9846708467, progress insts committed: 7896511, IPC: 0.394826
17404359383000: Event_144: system.switch_cpus progress event, total committed:9854604938, progress insts committed: 7896471, IPC: 0.394824
17414359383000: Event_144: system.switch_cpus progress event, total committed:9862501093, progress insts committed: 7896155, IPC: 0.394808
17424359383000: Event_144: system.switch_cpus progress event, total committed:9870389618, progress insts committed: 7888525, IPC: 0.394426
17434359383000: Event_144: system.switch_cpus progress event, total committed:9878288877, progress insts committed: 7899259, IPC: 0.394963
17444359383000: Event_144: system.switch_cpus progress event, total committed:9886188172, progress insts committed: 7899295, IPC: 0.394965
17454359383000: Event_144: system.switch_cpus progress event, total committed:9894084641, progress insts committed: 7896469, IPC: 0.394823
17464359383000: Event_144: system.switch_cpus progress event, total committed:9901980870, progress insts committed: 7896229, IPC: 0.394811
17474359383000: Event_144: system.switch_cpus progress event, total committed:9909880515, progress insts committed: 7899645, IPC: 0.394982
17484359383000: Event_144: system.switch_cpus progress event, total committed:9917778797, progress insts committed: 7898282, IPC: 0.394914
17494359383000: Event_144: system.switch_cpus progress event, total committed:9925675076, progress insts committed: 7896279, IPC: 0.394814
17504359383000: Event_144: system.switch_cpus progress event, total committed:9933571283, progress insts committed: 7896207, IPC: 00.39481
17514359383000: Event_144: system.switch_cpus progress event, total committed:9941466096, progress insts committed: 7894813, IPC: 0.394741
17524359383000: Event_144: system.switch_cpus progress event, total committed:9949362022, progress insts committed: 7895926, IPC: 0.394796
17534359383000: Event_144: system.switch_cpus progress event, total committed:9957257843, progress insts committed: 7895821, IPC: 0.394791
17544359383000: Event_144: system.switch_cpus progress event, total committed:9965155982, progress insts committed: 7898139, IPC: 0.394907
17554359383000: Event_144: system.switch_cpus progress event, total committed:9973053451, progress insts committed: 7897469, IPC: 0.394873
17564359383000: Event_144: system.switch_cpus progress event, total committed:9980949442, progress insts committed: 7895991, IPC: 000.3948
17574359383000: Event_144: system.switch_cpus progress event, total committed:9988851624, progress insts committed: 7902182, IPC: 0.395109
17584359383000: Event_144: system.switch_cpus progress event, total committed:9996745187, progress insts committed: 7893563, IPC: 0.394678
17594359383000: Event_144: system.switch_cpus progress event, total committed:10004638613, progress insts committed: 7893426, IPC: 0.394671
17604359383000: Event_144: system.switch_cpus progress event, total committed:10012538167, progress insts committed: 7899554, IPC: 0.394978
17614359383000: Event_144: system.switch_cpus progress event, total committed:10020433932, progress insts committed: 7895765, IPC: 0.394788
17624359383000: Event_144: system.switch_cpus progress event, total committed:10028324436, progress insts committed: 7890504, IPC: 0.394525
17634359383000: Event_144: system.switch_cpus progress event, total committed:10036225499, progress insts committed: 7901063, IPC: 0.395053
17644359383000: Event_144: system.switch_cpus progress event, total committed:10044121011, progress insts committed: 7895512, IPC: 0.394776
17654359383000: Event_144: system.switch_cpus progress event, total committed:10052018691, progress insts committed: 7897680, IPC: 0.394884
17664359383000: Event_144: system.switch_cpus progress event, total committed:10059913972, progress insts committed: 7895281, IPC: 0.394764
17674359383000: Event_144: system.switch_cpus progress event, total committed:10067812531, progress insts committed: 7898559, IPC: 0.394928
17684359383000: Event_144: system.switch_cpus progress event, total committed:10075708554, progress insts committed: 7896023, IPC: 0.394801
17694359383000: Event_144: system.switch_cpus progress event, total committed:10083607700, progress insts committed: 7899146, IPC: 0.394957
17704359383000: Event_144: system.switch_cpus progress event, total committed:10091505266, progress insts committed: 7897566, IPC: 0.394878
17714359383000: Event_144: system.switch_cpus progress event, total committed:10099403631, progress insts committed: 7898365, IPC: 0.394918
17724359383000: Event_144: system.switch_cpus progress event, total committed:10107296302, progress insts committed: 7892671, IPC: 0.394634
17734359383000: Event_144: system.switch_cpus progress event, total committed:10115191879, progress insts committed: 7895577, IPC: 0.394779
17744359383000: Event_144: system.switch_cpus progress event, total committed:10123088090, progress insts committed: 7896211, IPC: 0.394811
17754359383000: Event_144: system.switch_cpus progress event, total committed:10130985442, progress insts committed: 7897352, IPC: 0.394868
17764359383000: Event_144: system.switch_cpus progress event, total committed:10138881227, progress insts committed: 7895785, IPC: 0.394789
17774359383000: Event_144: system.switch_cpus progress event, total committed:10146780776, progress insts committed: 7899549, IPC: 0.394977
17784359383000: Event_144: system.switch_cpus progress event, total committed:10154674318, progress insts committed: 7893542, IPC: 0.394677
Exiting @ tick 17794255074500 because a thread reached the max instruction count
