
---------- Begin Simulation Statistics ----------
final_tick                               6260412019500                       # Number of ticks from beginning of simulation (restored from checkpoints and never reset)
host_inst_rate                                 379888                       # Simulator instruction rate (inst/s)
host_mem_usage                               21067860                       # Number of bytes of host memory used
host_op_rate                                   429177                       # Simulator op (including micro ops) rate (op/s)
host_seconds                                  5264.72                       # Real time elapsed on the host
host_tick_rate                               98608197                       # Simulator tick rate (ticks/s)
sim_freq                                 1000000000000                       # Frequency of simulated ticks
sim_insts                                  2000000024                       # Number of instructions simulated
sim_ops                                    2259497434                       # Number of ops (including micro ops) simulated
sim_seconds                                  0.519144                       # Number of seconds simulated
sim_ticks                                519144176500                       # Number of ticks simulated
system.cpu.Branches                                 3                       # Number of branches fetched
system.cpu.committedInsts                          20                       # Number of instructions committed
system.cpu.committedOps                            20                       # Number of ops (including micro ops) committed
system.cpu.dcache.MSHRs.leapFrogMisses          28640                       # number of false blocks from MSHR
system.cpu.icache.MSHRs.leapFrogMisses              0                       # number of false blocks from MSHR
system.cpu.idle_fraction                            0                       # Percentage of idle cycles
system.cpu.not_idle_fraction                        1                       # Percentage of non-idle cycles
system.cpu.numCycles                               20                       # number of cpu cycles simulated
system.cpu.numWorkItemsCompleted                    0                       # number of work items this cpu completed
system.cpu.numWorkItemsStarted                      0                       # number of work items this cpu started
system.cpu.num_busy_cycles                         20                       # Number of busy cycles
system.cpu.num_cc_register_reads                    6                       # number of times the CC registers were read
system.cpu.num_cc_register_writes                   9                       # number of times the CC registers were written
system.cpu.num_conditional_control_insts            1                       # number of instructions that are conditional controls
system.cpu.num_fp_alu_accesses                      0                       # Number of float alu accesses
system.cpu.num_fp_insts                             0                       # number of float instructions
system.cpu.num_fp_register_reads                    0                       # number of times the floating registers were read
system.cpu.num_fp_register_writes                   0                       # number of times the floating registers were written
system.cpu.num_func_calls                           0                       # number of times a function call or return occured
system.cpu.num_idle_cycles                          0                       # Number of idle cycles
system.cpu.num_int_alu_accesses                    19                       # Number of integer alu accesses
system.cpu.num_int_insts                           19                       # number of integer instructions
system.cpu.num_int_register_reads                  18                       # number of times the integer registers were read
system.cpu.num_int_register_writes                 15                       # number of times the integer registers were written
system.cpu.num_load_insts                           6                       # Number of load instructions
system.cpu.num_mem_refs                             6                       # number of memory refs
system.cpu.num_store_insts                          0                       # Number of store instructions
system.cpu.num_vec_alu_accesses                     0                       # Number of vector alu accesses
system.cpu.num_vec_insts                            0                       # number of vector instructions
system.cpu.num_vec_register_reads                   0                       # number of times the vector registers were read
system.cpu.num_vec_register_writes                  0                       # number of times the vector registers were written
system.cpu.op_class::No_OpClass                     0      0.00%      0.00% # Class of executed instruction
system.cpu.op_class::IntAlu                        14     70.00%     70.00% # Class of executed instruction
system.cpu.op_class::IntMult                        0      0.00%     70.00% # Class of executed instruction
system.cpu.op_class::IntDiv                         0      0.00%     70.00% # Class of executed instruction
system.cpu.op_class::FloatAdd                       0      0.00%     70.00% # Class of executed instruction
system.cpu.op_class::FloatCmp                       0      0.00%     70.00% # Class of executed instruction
system.cpu.op_class::FloatCvt                       0      0.00%     70.00% # Class of executed instruction
system.cpu.op_class::FloatMult                      0      0.00%     70.00% # Class of executed instruction
system.cpu.op_class::FloatMultAcc                   0      0.00%     70.00% # Class of executed instruction
system.cpu.op_class::FloatDiv                       0      0.00%     70.00% # Class of executed instruction
system.cpu.op_class::FloatMisc                      0      0.00%     70.00% # Class of executed instruction
system.cpu.op_class::FloatSqrt                      0      0.00%     70.00% # Class of executed instruction
system.cpu.op_class::SimdAdd                        0      0.00%     70.00% # Class of executed instruction
system.cpu.op_class::SimdAddAcc                     0      0.00%     70.00% # Class of executed instruction
system.cpu.op_class::SimdAlu                        0      0.00%     70.00% # Class of executed instruction
system.cpu.op_class::SimdCmp                        0      0.00%     70.00% # Class of executed instruction
system.cpu.op_class::SimdCvt                        0      0.00%     70.00% # Class of executed instruction
system.cpu.op_class::SimdMisc                       0      0.00%     70.00% # Class of executed instruction
system.cpu.op_class::SimdMult                       0      0.00%     70.00% # Class of executed instruction
system.cpu.op_class::SimdMultAcc                    0      0.00%     70.00% # Class of executed instruction
system.cpu.op_class::SimdShift                      0      0.00%     70.00% # Class of executed instruction
system.cpu.op_class::SimdShiftAcc                   0      0.00%     70.00% # Class of executed instruction
system.cpu.op_class::SimdDiv                        0      0.00%     70.00% # Class of executed instruction
system.cpu.op_class::SimdSqrt                       0      0.00%     70.00% # Class of executed instruction
system.cpu.op_class::SimdFloatAdd                   0      0.00%     70.00% # Class of executed instruction
system.cpu.op_class::SimdFloatAlu                   0      0.00%     70.00% # Class of executed instruction
system.cpu.op_class::SimdFloatCmp                   0      0.00%     70.00% # Class of executed instruction
system.cpu.op_class::SimdFloatCvt                   0      0.00%     70.00% # Class of executed instruction
system.cpu.op_class::SimdFloatDiv                   0      0.00%     70.00% # Class of executed instruction
system.cpu.op_class::SimdFloatMisc                  0      0.00%     70.00% # Class of executed instruction
system.cpu.op_class::SimdFloatMult                  0      0.00%     70.00% # Class of executed instruction
system.cpu.op_class::SimdFloatMultAcc               0      0.00%     70.00% # Class of executed instruction
system.cpu.op_class::SimdFloatSqrt                  0      0.00%     70.00% # Class of executed instruction
system.cpu.op_class::SimdReduceAdd                  0      0.00%     70.00% # Class of executed instruction
system.cpu.op_class::SimdReduceAlu                  0      0.00%     70.00% # Class of executed instruction
system.cpu.op_class::SimdReduceCmp                  0      0.00%     70.00% # Class of executed instruction
system.cpu.op_class::SimdFloatReduceAdd             0      0.00%     70.00% # Class of executed instruction
system.cpu.op_class::SimdFloatReduceCmp             0      0.00%     70.00% # Class of executed instruction
system.cpu.op_class::SimdAes                        0      0.00%     70.00% # Class of executed instruction
system.cpu.op_class::SimdAesMix                     0      0.00%     70.00% # Class of executed instruction
system.cpu.op_class::SimdSha1Hash                   0      0.00%     70.00% # Class of executed instruction
system.cpu.op_class::SimdSha1Hash2                  0      0.00%     70.00% # Class of executed instruction
system.cpu.op_class::SimdSha256Hash                 0      0.00%     70.00% # Class of executed instruction
system.cpu.op_class::SimdSha256Hash2                0      0.00%     70.00% # Class of executed instruction
system.cpu.op_class::SimdShaSigma2                  0      0.00%     70.00% # Class of executed instruction
system.cpu.op_class::SimdShaSigma3                  0      0.00%     70.00% # Class of executed instruction
system.cpu.op_class::SimdPredAlu                    0      0.00%     70.00% # Class of executed instruction
system.cpu.op_class::MemRead                        6     30.00%    100.00% # Class of executed instruction
system.cpu.op_class::MemWrite                       0      0.00%    100.00% # Class of executed instruction
system.cpu.op_class::FloatMemRead                   0      0.00%    100.00% # Class of executed instruction
system.cpu.op_class::FloatMemWrite                  0      0.00%    100.00% # Class of executed instruction
system.cpu.op_class::IprAccess                      0      0.00%    100.00% # Class of executed instruction
system.cpu.op_class::InstPrefetch                   0      0.00%    100.00% # Class of executed instruction
system.cpu.op_class::total                         20                       # Class of executed instruction
system.cpu.workload.numSyscalls                    27                       # Number of system calls
system.l2.MSHRs.leapFrogMisses                      0                       # number of false blocks from MSHR
system.membus.snoop_filter.hit_multi_requests            0                       # Number of requests hitting in the snoop filter with multiple (>1) holders of the requested data.
system.membus.snoop_filter.hit_multi_snoops            0                       # Number of snoops hitting in the snoop filter with multiple (>1) holders of the requested data.
system.membus.snoop_filter.hit_single_requests       626681                       # Number of requests hitting in the snoop filter with a single holder of the requested data.
system.membus.snoop_filter.hit_single_snoops            0                       # Number of snoops hitting in the snoop filter with a single holder of the requested data.
system.membus.snoop_filter.tot_requests       1346615                       # Total number of requests made to the snoop filter.
system.membus.snoop_filter.tot_snoops               0                       # Total number of snoops made to the snoop filter.
system.switch_cpus.cc_regfile_reads         659164866                       # number of cc regfile reads
system.switch_cpus.cc_regfile_writes        656763934                       # number of cc regfile writes
system.switch_cpus.committedInsts          2000000004                       # Number of Instructions Simulated
system.switch_cpus.committedOps            2259497414                       # Number of Ops (including micro ops) Simulated
system.switch_cpus.cpi                       0.519144                       # CPI: Cycles Per Instruction
system.switch_cpus.cpi_total                 0.519144                       # CPI: Total CPI of All Threads
system.switch_cpus.idleCycles                35629615                       # Total number of cycles that the CPU has spent unscheduled due to idling
system.switch_cpus.iew.branchMispredicts      7994765                       # Number of branch mispredicts detected at execute
system.switch_cpus.iew.exec_branches        376246297                       # Number of branches executed
system.switch_cpus.iew.exec_nop              10076600                       # number of nop insts executed
system.switch_cpus.iew.exec_rate             2.332470                       # Inst execution rate
system.switch_cpus.iew.exec_refs            999469188                       # number of memory reference insts executed
system.switch_cpus.iew.exec_stores          386862348                       # Number of stores executed
system.switch_cpus.iew.exec_swp                     0                       # number of swp insts executed
system.switch_cpus.iew.iewBlockCycles        31334819                       # Number of cycles IEW is blocking
system.switch_cpus.iew.iewDispLoadInsts     621460117                       # Number of dispatched load instructions
system.switch_cpus.iew.iewDispNonSpecInsts        17731                       # Number of dispatched non-speculative instructions
system.switch_cpus.iew.iewDispSquashedInsts      1483105                       # Number of squashed instructions skipped by dispatch
system.switch_cpus.iew.iewDispStoreInsts    400134051                       # Number of dispatched store instructions
system.switch_cpus.iew.iewDispatchedInsts   2501005075                       # Number of instructions dispatched to IQ
system.switch_cpus.iew.iewExecLoadInsts     612606840                       # Number of load instructions executed
system.switch_cpus.iew.iewExecSquashedInsts     12278020                       # Number of squashed instructions skipped in execute
system.switch_cpus.iew.iewExecutedInsts    2421777354                       # Number of executed instructions
system.switch_cpus.iew.iewIQFullEvents         405671                       # Number of times the IQ has become full, causing a stall
system.switch_cpus.iew.iewIdleCycles                0                       # Number of cycles IEW is idle
system.switch_cpus.iew.iewLSQFullEvents      10422595                       # Number of times the LSQ has become full, causing a stall
system.switch_cpus.iew.iewSquashCycles        7384987                       # Number of cycles IEW is squashing
system.switch_cpus.iew.iewUnblockCycles      10861763                       # Number of cycles IEW is unblocking
system.switch_cpus.iew.memOrderViolationEvents       268558                       # Number of memory order violations
system.switch_cpus.iew.predictedNotTakenIncorrect      4124716                       # Number of branches that were predicted not taken incorrectly
system.switch_cpus.iew.predictedTakenIncorrect      3870049                       # Number of branches that were predicted taken incorrectly
system.switch_cpus.iew.wb_consumers        2173823957                       # num instructions consuming a value
system.switch_cpus.iew.wb_count            2401332725                       # cumulative count of insts written-back
system.switch_cpus.iew.wb_fanout             0.586299                       # average fanout of values written-back
system.switch_cpus.iew.wb_producers        1274510402                       # num instructions producing a value
system.switch_cpus.iew.wb_rate               2.312780                       # insts written-back per cycle
system.switch_cpus.iew.wb_sent             2405017186                       # cumulative count of insts sent to commit
system.switch_cpus.int_regfile_reads       2760210499                       # number of integer regfile reads
system.switch_cpus.int_regfile_writes      1724244375                       # number of integer regfile writes
system.switch_cpus.ipc                       1.926247                       # IPC: Instructions Per Cycle
system.switch_cpus.ipc_total                 1.926247                       # IPC: Total IPC of All Threads
system.switch_cpus.iq.FU_type_0::No_OpClass        20904      0.00%      0.00% # Type of FU issued
system.switch_cpus.iq.FU_type_0::IntAlu    1425002561     58.54%     58.55% # Type of FU issued
system.switch_cpus.iq.FU_type_0::IntMult      1315327      0.05%     58.60% # Type of FU issued
system.switch_cpus.iq.FU_type_0::IntDiv        178650      0.01%     58.61% # Type of FU issued
system.switch_cpus.iq.FU_type_0::FloatAdd         1526      0.00%     58.61% # Type of FU issued
system.switch_cpus.iq.FU_type_0::FloatCmp        11108      0.00%     58.61% # Type of FU issued
system.switch_cpus.iq.FU_type_0::FloatCvt         4044      0.00%     58.61% # Type of FU issued
system.switch_cpus.iq.FU_type_0::FloatMult          995      0.00%     58.61% # Type of FU issued
system.switch_cpus.iq.FU_type_0::FloatMultAcc         1520      0.00%     58.61% # Type of FU issued
system.switch_cpus.iq.FU_type_0::FloatDiv          646      0.00%     58.61% # Type of FU issued
system.switch_cpus.iq.FU_type_0::FloatMisc        48032      0.00%     58.61% # Type of FU issued
system.switch_cpus.iq.FU_type_0::FloatSqrt            0      0.00%     58.61% # Type of FU issued
system.switch_cpus.iq.FU_type_0::SimdAdd        66638      0.00%     58.61% # Type of FU issued
system.switch_cpus.iq.FU_type_0::SimdAddAcc            2      0.00%     58.61% # Type of FU issued
system.switch_cpus.iq.FU_type_0::SimdAlu       277251      0.01%     58.62% # Type of FU issued
system.switch_cpus.iq.FU_type_0::SimdCmp       396485      0.02%     58.64% # Type of FU issued
system.switch_cpus.iq.FU_type_0::SimdCvt         1544      0.00%     58.64% # Type of FU issued
system.switch_cpus.iq.FU_type_0::SimdMisc       220756      0.01%     58.65% # Type of FU issued
system.switch_cpus.iq.FU_type_0::SimdMult            0      0.00%     58.65% # Type of FU issued
system.switch_cpus.iq.FU_type_0::SimdMultAcc            2      0.00%     58.65% # Type of FU issued
system.switch_cpus.iq.FU_type_0::SimdShift        26299      0.00%     58.65% # Type of FU issued
system.switch_cpus.iq.FU_type_0::SimdShiftAcc            0      0.00%     58.65% # Type of FU issued
system.switch_cpus.iq.FU_type_0::SimdDiv            0      0.00%     58.65% # Type of FU issued
system.switch_cpus.iq.FU_type_0::SimdSqrt            0      0.00%     58.65% # Type of FU issued
system.switch_cpus.iq.FU_type_0::SimdFloatAdd            0      0.00%     58.65% # Type of FU issued
system.switch_cpus.iq.FU_type_0::SimdFloatAlu            0      0.00%     58.65% # Type of FU issued
system.switch_cpus.iq.FU_type_0::SimdFloatCmp          381      0.00%     58.65% # Type of FU issued
system.switch_cpus.iq.FU_type_0::SimdFloatCvt            0      0.00%     58.65% # Type of FU issued
system.switch_cpus.iq.FU_type_0::SimdFloatDiv            0      0.00%     58.65% # Type of FU issued
system.switch_cpus.iq.FU_type_0::SimdFloatMisc            0      0.00%     58.65% # Type of FU issued
system.switch_cpus.iq.FU_type_0::SimdFloatMult            0      0.00%     58.65% # Type of FU issued
system.switch_cpus.iq.FU_type_0::SimdFloatMultAcc            2      0.00%     58.65% # Type of FU issued
system.switch_cpus.iq.FU_type_0::SimdFloatSqrt            0      0.00%     58.65% # Type of FU issued
system.switch_cpus.iq.FU_type_0::SimdReduceAdd            0      0.00%     58.65% # Type of FU issued
system.switch_cpus.iq.FU_type_0::SimdReduceAlu            0      0.00%     58.65% # Type of FU issued
system.switch_cpus.iq.FU_type_0::SimdReduceCmp            0      0.00%     58.65% # Type of FU issued
system.switch_cpus.iq.FU_type_0::SimdFloatReduceAdd            0      0.00%     58.65% # Type of FU issued
system.switch_cpus.iq.FU_type_0::SimdFloatReduceCmp            0      0.00%     58.65% # Type of FU issued
system.switch_cpus.iq.FU_type_0::SimdAes            0      0.00%     58.65% # Type of FU issued
system.switch_cpus.iq.FU_type_0::SimdAesMix            0      0.00%     58.65% # Type of FU issued
system.switch_cpus.iq.FU_type_0::SimdSha1Hash            0      0.00%     58.65% # Type of FU issued
system.switch_cpus.iq.FU_type_0::SimdSha1Hash2            0      0.00%     58.65% # Type of FU issued
system.switch_cpus.iq.FU_type_0::SimdSha256Hash            0      0.00%     58.65% # Type of FU issued
system.switch_cpus.iq.FU_type_0::SimdSha256Hash2            0      0.00%     58.65% # Type of FU issued
system.switch_cpus.iq.FU_type_0::SimdShaSigma2            0      0.00%     58.65% # Type of FU issued
system.switch_cpus.iq.FU_type_0::SimdShaSigma3            0      0.00%     58.65% # Type of FU issued
system.switch_cpus.iq.FU_type_0::SimdPredAlu            2      0.00%     58.65% # Type of FU issued
system.switch_cpus.iq.FU_type_0::MemRead    616896190     25.34%     83.99% # Type of FU issued
system.switch_cpus.iq.FU_type_0::MemWrite    389584511     16.01%    100.00% # Type of FU issued
system.switch_cpus.iq.FU_type_0::FloatMemRead            0      0.00%    100.00% # Type of FU issued
system.switch_cpus.iq.FU_type_0::FloatMemWrite            0      0.00%    100.00% # Type of FU issued
system.switch_cpus.iq.FU_type_0::IprAccess            0      0.00%    100.00% # Type of FU issued
system.switch_cpus.iq.FU_type_0::InstPrefetch            0      0.00%    100.00% # Type of FU issued
system.switch_cpus.iq.FU_type_0::total     2434055376                       # Type of FU issued
system.switch_cpus.iq.fp_alu_accesses               0                       # Number of floating point alu accesses
system.switch_cpus.iq.fp_inst_queue_reads            0                       # Number of floating instruction queue reads
system.switch_cpus.iq.fp_inst_queue_wakeup_accesses            0                       # Number of floating instruction queue wakeup accesses
system.switch_cpus.iq.fp_inst_queue_writes            0                       # Number of floating instruction queue writes
system.switch_cpus.iq.fu_busy_cnt            62196394                       # FU busy when requested
system.switch_cpus.iq.fu_busy_rate           0.025553                       # FU busy rate (busy events/executed inst)
system.switch_cpus.iq.fu_full::No_OpClass            0      0.00%      0.00% # attempts to use FU when none available
system.switch_cpus.iq.fu_full::IntAlu         6476612     10.41%     10.41% # attempts to use FU when none available
system.switch_cpus.iq.fu_full::IntMult            381      0.00%     10.41% # attempts to use FU when none available
system.switch_cpus.iq.fu_full::IntDiv             371      0.00%     10.41% # attempts to use FU when none available
system.switch_cpus.iq.fu_full::FloatAdd             0      0.00%     10.41% # attempts to use FU when none available
system.switch_cpus.iq.fu_full::FloatCmp             0      0.00%     10.41% # attempts to use FU when none available
system.switch_cpus.iq.fu_full::FloatCvt             0      0.00%     10.41% # attempts to use FU when none available
system.switch_cpus.iq.fu_full::FloatMult          222      0.00%     10.41% # attempts to use FU when none available
system.switch_cpus.iq.fu_full::FloatMultAcc           80      0.00%     10.41% # attempts to use FU when none available
system.switch_cpus.iq.fu_full::FloatDiv             0      0.00%     10.41% # attempts to use FU when none available
system.switch_cpus.iq.fu_full::FloatMisc          954      0.00%     10.42% # attempts to use FU when none available
system.switch_cpus.iq.fu_full::FloatSqrt            0      0.00%     10.42% # attempts to use FU when none available
system.switch_cpus.iq.fu_full::SimdAdd              0      0.00%     10.42% # attempts to use FU when none available
system.switch_cpus.iq.fu_full::SimdAddAcc            0      0.00%     10.42% # attempts to use FU when none available
system.switch_cpus.iq.fu_full::SimdAlu             65      0.00%     10.42% # attempts to use FU when none available
system.switch_cpus.iq.fu_full::SimdCmp              3      0.00%     10.42% # attempts to use FU when none available
system.switch_cpus.iq.fu_full::SimdCvt              0      0.00%     10.42% # attempts to use FU when none available
system.switch_cpus.iq.fu_full::SimdMisc          5090      0.01%     10.42% # attempts to use FU when none available
system.switch_cpus.iq.fu_full::SimdMult             0      0.00%     10.42% # attempts to use FU when none available
system.switch_cpus.iq.fu_full::SimdMultAcc            0      0.00%     10.42% # attempts to use FU when none available
system.switch_cpus.iq.fu_full::SimdShift          970      0.00%     10.43% # attempts to use FU when none available
system.switch_cpus.iq.fu_full::SimdShiftAcc            0      0.00%     10.43% # attempts to use FU when none available
system.switch_cpus.iq.fu_full::SimdDiv              0      0.00%     10.43% # attempts to use FU when none available
system.switch_cpus.iq.fu_full::SimdSqrt             0      0.00%     10.43% # attempts to use FU when none available
system.switch_cpus.iq.fu_full::SimdFloatAdd            0      0.00%     10.43% # attempts to use FU when none available
system.switch_cpus.iq.fu_full::SimdFloatAlu            0      0.00%     10.43% # attempts to use FU when none available
system.switch_cpus.iq.fu_full::SimdFloatCmp            0      0.00%     10.43% # attempts to use FU when none available
system.switch_cpus.iq.fu_full::SimdFloatCvt            0      0.00%     10.43% # attempts to use FU when none available
system.switch_cpus.iq.fu_full::SimdFloatDiv            0      0.00%     10.43% # attempts to use FU when none available
system.switch_cpus.iq.fu_full::SimdFloatMisc            0      0.00%     10.43% # attempts to use FU when none available
system.switch_cpus.iq.fu_full::SimdFloatMult            0      0.00%     10.43% # attempts to use FU when none available
system.switch_cpus.iq.fu_full::SimdFloatMultAcc            0      0.00%     10.43% # attempts to use FU when none available
system.switch_cpus.iq.fu_full::SimdFloatSqrt            0      0.00%     10.43% # attempts to use FU when none available
system.switch_cpus.iq.fu_full::SimdReduceAdd            0      0.00%     10.43% # attempts to use FU when none available
system.switch_cpus.iq.fu_full::SimdReduceAlu            0      0.00%     10.43% # attempts to use FU when none available
system.switch_cpus.iq.fu_full::SimdReduceCmp            0      0.00%     10.43% # attempts to use FU when none available
system.switch_cpus.iq.fu_full::SimdFloatReduceAdd            0      0.00%     10.43% # attempts to use FU when none available
system.switch_cpus.iq.fu_full::SimdFloatReduceCmp            0      0.00%     10.43% # attempts to use FU when none available
system.switch_cpus.iq.fu_full::SimdAes              0      0.00%     10.43% # attempts to use FU when none available
system.switch_cpus.iq.fu_full::SimdAesMix            0      0.00%     10.43% # attempts to use FU when none available
system.switch_cpus.iq.fu_full::SimdSha1Hash            0      0.00%     10.43% # attempts to use FU when none available
system.switch_cpus.iq.fu_full::SimdSha1Hash2            0      0.00%     10.43% # attempts to use FU when none available
system.switch_cpus.iq.fu_full::SimdSha256Hash            0      0.00%     10.43% # attempts to use FU when none available
system.switch_cpus.iq.fu_full::SimdSha256Hash2            0      0.00%     10.43% # attempts to use FU when none available
system.switch_cpus.iq.fu_full::SimdShaSigma2            0      0.00%     10.43% # attempts to use FU when none available
system.switch_cpus.iq.fu_full::SimdShaSigma3            0      0.00%     10.43% # attempts to use FU when none available
system.switch_cpus.iq.fu_full::SimdPredAlu            0      0.00%     10.43% # attempts to use FU when none available
system.switch_cpus.iq.fu_full::MemRead       27799511     44.70%     55.12% # attempts to use FU when none available
system.switch_cpus.iq.fu_full::MemWrite      27912135     44.88%    100.00% # attempts to use FU when none available
system.switch_cpus.iq.fu_full::FloatMemRead            0      0.00%    100.00% # attempts to use FU when none available
system.switch_cpus.iq.fu_full::FloatMemWrite            0      0.00%    100.00% # attempts to use FU when none available
system.switch_cpus.iq.fu_full::IprAccess            0      0.00%    100.00% # attempts to use FU when none available
system.switch_cpus.iq.fu_full::InstPrefetch            0      0.00%    100.00% # attempts to use FU when none available
system.switch_cpus.iq.int_alu_accesses     2491724767                       # Number of integer alu accesses
system.switch_cpus.iq.int_inst_queue_reads   5925365536                       # Number of integer instruction queue reads
system.switch_cpus.iq.int_inst_queue_wakeup_accesses   2397227055                       # Number of integer instruction queue wakeup accesses
system.switch_cpus.iq.int_inst_queue_writes   2717436197                       # Number of integer instruction queue writes
system.switch_cpus.iq.iqInstsAdded         2490910744                       # Number of instructions added to the IQ (excludes non-spec)
system.switch_cpus.iq.iqInstsIssued        2434055376                       # Number of instructions issued
system.switch_cpus.iq.iqNonSpecInstsAdded        17731                       # Number of non-speculative instructions added to the IQ
system.switch_cpus.iq.iqSquashedInstsExamined    231431014                       # Number of squashed instructions iterated over during squash; mainly for profiling
system.switch_cpus.iq.iqSquashedInstsIssued      1275331                       # Number of squashed instructions issued
system.switch_cpus.iq.iqSquashedNonSpecRemoved         6544                       # Number of squashed non-spec instructions that were removed
system.switch_cpus.iq.iqSquashedOperandsExamined    150025475                       # Number of squashed operands that are examined and possibly removed from graph
system.switch_cpus.iq.issued_per_cycle::samples   1002658945                       # Number of insts issued each cycle
system.switch_cpus.iq.issued_per_cycle::mean     2.427601                       # Number of insts issued each cycle
system.switch_cpus.iq.issued_per_cycle::stdev     2.224788                       # Number of insts issued each cycle
system.switch_cpus.iq.issued_per_cycle::underflows            0      0.00%      0.00% # Number of insts issued each cycle
system.switch_cpus.iq.issued_per_cycle::0    266128845     26.54%     26.54% # Number of insts issued each cycle
system.switch_cpus.iq.issued_per_cycle::1    150119077     14.97%     41.51% # Number of insts issued each cycle
system.switch_cpus.iq.issued_per_cycle::2    160479244     16.01%     57.52% # Number of insts issued each cycle
system.switch_cpus.iq.issued_per_cycle::3    132969893     13.26%     70.78% # Number of insts issued each cycle
system.switch_cpus.iq.issued_per_cycle::4    113303048     11.30%     82.08% # Number of insts issued each cycle
system.switch_cpus.iq.issued_per_cycle::5     63916264      6.37%     88.46% # Number of insts issued each cycle
system.switch_cpus.iq.issued_per_cycle::6     42350433      4.22%     92.68% # Number of insts issued each cycle
system.switch_cpus.iq.issued_per_cycle::7     49965106      4.98%     97.66% # Number of insts issued each cycle
system.switch_cpus.iq.issued_per_cycle::8     23427035      2.34%    100.00% # Number of insts issued each cycle
system.switch_cpus.iq.issued_per_cycle::overflows            0      0.00%    100.00% # Number of insts issued each cycle
system.switch_cpus.iq.issued_per_cycle::min_value            0                       # Number of insts issued each cycle
system.switch_cpus.iq.issued_per_cycle::max_value            8                       # Number of insts issued each cycle
system.switch_cpus.iq.issued_per_cycle::total   1002658945                       # Number of insts issued each cycle
system.switch_cpus.iq.rate                   2.344296                       # Inst issue rate
system.switch_cpus.iq.vec_alu_accesses        4506099                       # Number of vector alu accesses
system.switch_cpus.iq.vec_inst_queue_reads      8875884                       # Number of vector instruction queue reads
system.switch_cpus.iq.vec_inst_queue_wakeup_accesses      4105670                       # Number of vector instruction queue wakeup accesses
system.switch_cpus.iq.vec_inst_queue_writes      5180036                       # Number of vector instruction queue writes
system.switch_cpus.memDep0.conflictingLoads     16971158                       # Number of conflicting loads.
system.switch_cpus.memDep0.conflictingStores     16459326                       # Number of conflicting stores.
system.switch_cpus.memDep0.insertedLoads    621460117                       # Number of loads inserted to the mem dependence unit.
system.switch_cpus.memDep0.insertedStores    400134051                       # Number of stores inserted to the mem dependence unit.
system.switch_cpus.misc_regfile_reads      6346742319                       # number of misc regfile reads
system.switch_cpus.misc_regfile_writes          30516                       # number of misc regfile writes
system.switch_cpus.numCycles               1038288560                       # number of cpu cycles simulated
system.switch_cpus.numWorkItemsCompleted            0                       # number of work items this cpu completed
system.switch_cpus.numWorkItemsStarted              0                       # number of work items this cpu started
system.switch_cpus.pred_regfile_reads          936612                       # number of predicate regfile reads
system.switch_cpus.pred_regfile_writes         333757                       # number of predicate regfile writes
system.switch_cpus.timesIdled                 4666912                       # Number of times that the entire CPU went into an idle state and unscheduled itself
system.switch_cpus.vec_regfile_reads          3059985                       # number of vector regfile reads
system.switch_cpus.vec_regfile_writes         1815806                       # number of vector regfile writes
system.tol2bus.snoop_filter.hit_multi_requests        55748                       # Number of requests hitting in the snoop filter with multiple (>1) holders of the requested data.
system.tol2bus.snoop_filter.hit_multi_snoops          241                       # Number of snoops hitting in the snoop filter with multiple (>1) holders of the requested data.
system.tol2bus.snoop_filter.hit_single_requests     13689431                       # Number of requests hitting in the snoop filter with a single holder of the requested data.
system.tol2bus.snoop_filter.hit_single_snoops       697971                       # Number of snoops hitting in the snoop filter with a single holder of the requested data.
system.tol2bus.snoop_filter.tot_requests     26582353                       # Total number of requests made to the snoop filter.
system.tol2bus.snoop_filter.tot_snoops         698212                       # Total number of snoops made to the snoop filter.
system.clk_domain.clock                          1000                       # Clock period in ticks
system.cpu.dcache.demand_hits::.cpu.data            2                       # number of demand (read+write) hits
system.cpu.dcache.demand_hits::.switch_cpus.data    933136047                       # number of demand (read+write) hits
system.cpu.dcache.demand_hits::total        933136049                       # number of demand (read+write) hits
system.cpu.dcache.overall_hits::.cpu.data            2                       # number of overall hits
system.cpu.dcache.overall_hits::.switch_cpus.data    933136047                       # number of overall hits
system.cpu.dcache.overall_hits::total       933136049                       # number of overall hits
system.cpu.dcache.demand_misses::.cpu.data            4                       # number of demand (read+write) misses
system.cpu.dcache.demand_misses::.switch_cpus.data     13540668                       # number of demand (read+write) misses
system.cpu.dcache.demand_misses::total       13540672                       # number of demand (read+write) misses
system.cpu.dcache.overall_misses::.cpu.data            4                       # number of overall misses
system.cpu.dcache.overall_misses::.switch_cpus.data     13540668                       # number of overall misses
system.cpu.dcache.overall_misses::total      13540672                       # number of overall misses
system.cpu.dcache.demand_miss_latency::.switch_cpus.data 224406253126                       # number of demand (read+write) miss cycles
system.cpu.dcache.demand_miss_latency::total 224406253126                       # number of demand (read+write) miss cycles
system.cpu.dcache.overall_miss_latency::.switch_cpus.data 224406253126                       # number of overall miss cycles
system.cpu.dcache.overall_miss_latency::total 224406253126                       # number of overall miss cycles
system.cpu.dcache.demand_accesses::.cpu.data            6                       # number of demand (read+write) accesses
system.cpu.dcache.demand_accesses::.switch_cpus.data    946676715                       # number of demand (read+write) accesses
system.cpu.dcache.demand_accesses::total    946676721                       # number of demand (read+write) accesses
system.cpu.dcache.overall_accesses::.cpu.data            6                       # number of overall (read+write) accesses
system.cpu.dcache.overall_accesses::.switch_cpus.data    946676715                       # number of overall (read+write) accesses
system.cpu.dcache.overall_accesses::total    946676721                       # number of overall (read+write) accesses
system.cpu.dcache.demand_miss_rate::.cpu.data     0.666667                       # miss rate for demand accesses
system.cpu.dcache.demand_miss_rate::.switch_cpus.data     0.014303                       # miss rate for demand accesses
system.cpu.dcache.demand_miss_rate::total     0.014303                       # miss rate for demand accesses
system.cpu.dcache.overall_miss_rate::.cpu.data     0.666667                       # miss rate for overall accesses
system.cpu.dcache.overall_miss_rate::.switch_cpus.data     0.014303                       # miss rate for overall accesses
system.cpu.dcache.overall_miss_rate::total     0.014303                       # miss rate for overall accesses
system.cpu.dcache.demand_avg_miss_latency::.switch_cpus.data 16572.760895                       # average overall miss latency
system.cpu.dcache.demand_avg_miss_latency::total 16572.756000                       # average overall miss latency
system.cpu.dcache.overall_avg_miss_latency::.switch_cpus.data 16572.760895                       # average overall miss latency
system.cpu.dcache.overall_avg_miss_latency::total 16572.756000                       # average overall miss latency
system.cpu.dcache.blocked_cycles::no_mshrs      2982420                       # number of cycles access was blocked
system.cpu.dcache.blocked_cycles::no_targets       112873                       # number of cycles access was blocked
system.cpu.dcache.blocked::no_mshrs            273463                       # number of cycles access was blocked
system.cpu.dcache.blocked::no_targets           17075                       # number of cycles access was blocked
system.cpu.dcache.avg_blocked_cycles::no_mshrs    10.906119                       # average number of cycles each access was blocked
system.cpu.dcache.avg_blocked_cycles::no_targets     6.610425                       # average number of cycles each access was blocked
system.cpu.dcache.ghost_timestamp_misses         4623                       # number of times timestamp policy causes a block to be inaccessible
system.cpu.dcache.ghost_commits               3976548                       # number of cache lines moved from ghost to main
system.cpu.dcache.same_leapfrogs                94540                       # number of times leapfrogging occurs with a shared MSHR request
system.cpu.dcache.writebacks::.writebacks      8383296                       # number of writebacks
system.cpu.dcache.writebacks::total           8383296                       # number of writebacks
system.cpu.dcache.demand_mshr_hits::.switch_cpus.data      6995411                       # number of demand (read+write) MSHR hits
system.cpu.dcache.demand_mshr_hits::total      6995411                       # number of demand (read+write) MSHR hits
system.cpu.dcache.overall_mshr_hits::.switch_cpus.data      6995411                       # number of overall MSHR hits
system.cpu.dcache.overall_mshr_hits::total      6995411                       # number of overall MSHR hits
system.cpu.dcache.demand_mshr_misses::.switch_cpus.data      6545257                       # number of demand (read+write) MSHR misses
system.cpu.dcache.demand_mshr_misses::total      6545257                       # number of demand (read+write) MSHR misses
system.cpu.dcache.overall_mshr_misses::.switch_cpus.data      6545257                       # number of overall MSHR misses
system.cpu.dcache.overall_mshr_misses::total      6545257                       # number of overall MSHR misses
system.cpu.dcache.demand_mshr_miss_latency::.switch_cpus.data 113060137624                       # number of demand (read+write) MSHR miss cycles
system.cpu.dcache.demand_mshr_miss_latency::total 113060137624                       # number of demand (read+write) MSHR miss cycles
system.cpu.dcache.overall_mshr_miss_latency::.switch_cpus.data 113060137624                       # number of overall MSHR miss cycles
system.cpu.dcache.overall_mshr_miss_latency::total 113060137624                       # number of overall MSHR miss cycles
system.cpu.dcache.demand_mshr_miss_rate::.switch_cpus.data     0.006914                       # mshr miss rate for demand accesses
system.cpu.dcache.demand_mshr_miss_rate::total     0.006914                       # mshr miss rate for demand accesses
system.cpu.dcache.overall_mshr_miss_rate::.switch_cpus.data     0.006914                       # mshr miss rate for overall accesses
system.cpu.dcache.overall_mshr_miss_rate::total     0.006914                       # mshr miss rate for overall accesses
system.cpu.dcache.demand_avg_mshr_miss_latency::.switch_cpus.data 17273.597908                       # average overall mshr miss latency
system.cpu.dcache.demand_avg_mshr_miss_latency::total 17273.597908                       # average overall mshr miss latency
system.cpu.dcache.overall_avg_mshr_miss_latency::.switch_cpus.data 17273.597908                       # average overall mshr miss latency
system.cpu.dcache.overall_avg_mshr_miss_latency::total 17273.597908                       # average overall mshr miss latency
system.cpu.dcache.replacements                4406973                       # number of replacements
system.cpu.dcache.ReadReq_hits::.cpu.data            2                       # number of ReadReq hits
system.cpu.dcache.ReadReq_hits::.switch_cpus.data    572732055                       # number of ReadReq hits
system.cpu.dcache.ReadReq_hits::total       572732057                       # number of ReadReq hits
system.cpu.dcache.ReadReq_misses::.cpu.data            4                       # number of ReadReq misses
system.cpu.dcache.ReadReq_misses::.switch_cpus.data     10700574                       # number of ReadReq misses
system.cpu.dcache.ReadReq_misses::total      10700578                       # number of ReadReq misses
system.cpu.dcache.ReadReq_miss_latency::.switch_cpus.data 181178551500                       # number of ReadReq miss cycles
system.cpu.dcache.ReadReq_miss_latency::total 181178551500                       # number of ReadReq miss cycles
system.cpu.dcache.ReadReq_accesses::.cpu.data            6                       # number of ReadReq accesses(hits+misses)
system.cpu.dcache.ReadReq_accesses::.switch_cpus.data    583432629                       # number of ReadReq accesses(hits+misses)
system.cpu.dcache.ReadReq_accesses::total    583432635                       # number of ReadReq accesses(hits+misses)
system.cpu.dcache.ReadReq_miss_rate::.cpu.data     0.666667                       # miss rate for ReadReq accesses
system.cpu.dcache.ReadReq_miss_rate::.switch_cpus.data     0.018341                       # miss rate for ReadReq accesses
system.cpu.dcache.ReadReq_miss_rate::total     0.018341                       # miss rate for ReadReq accesses
system.cpu.dcache.ReadReq_avg_miss_latency::.switch_cpus.data 16931.666610                       # average ReadReq miss latency
system.cpu.dcache.ReadReq_avg_miss_latency::total 16931.660280                       # average ReadReq miss latency
system.cpu.dcache.ReadReq_mshr_hits::.switch_cpus.data      5366900                       # number of ReadReq MSHR hits
system.cpu.dcache.ReadReq_mshr_hits::total      5366900                       # number of ReadReq MSHR hits
system.cpu.dcache.ReadReq_mshr_misses::.switch_cpus.data      5333674                       # number of ReadReq MSHR misses
system.cpu.dcache.ReadReq_mshr_misses::total      5333674                       # number of ReadReq MSHR misses
system.cpu.dcache.ReadReq_mshr_miss_latency::.switch_cpus.data  94691870000                       # number of ReadReq MSHR miss cycles
system.cpu.dcache.ReadReq_mshr_miss_latency::total  94691870000                       # number of ReadReq MSHR miss cycles
system.cpu.dcache.ReadReq_mshr_miss_rate::.switch_cpus.data     0.009142                       # mshr miss rate for ReadReq accesses
system.cpu.dcache.ReadReq_mshr_miss_rate::total     0.009142                       # mshr miss rate for ReadReq accesses
system.cpu.dcache.ReadReq_avg_mshr_miss_latency::.switch_cpus.data 17753.591614                       # average ReadReq mshr miss latency
system.cpu.dcache.ReadReq_avg_mshr_miss_latency::total 17753.591614                       # average ReadReq mshr miss latency
system.cpu.dcache.WriteReq_hits::.switch_cpus.data    360403977                       # number of WriteReq hits
system.cpu.dcache.WriteReq_hits::total      360403977                       # number of WriteReq hits
system.cpu.dcache.WriteReq_misses::.switch_cpus.data      2839336                       # number of WriteReq misses
system.cpu.dcache.WriteReq_misses::total      2839336                       # number of WriteReq misses
system.cpu.dcache.WriteReq_miss_latency::.switch_cpus.data  43214287857                       # number of WriteReq miss cycles
system.cpu.dcache.WriteReq_miss_latency::total  43214287857                       # number of WriteReq miss cycles
system.cpu.dcache.WriteReq_accesses::.switch_cpus.data    363243313                       # number of WriteReq accesses(hits+misses)
system.cpu.dcache.WriteReq_accesses::total    363243313                       # number of WriteReq accesses(hits+misses)
system.cpu.dcache.WriteReq_miss_rate::.switch_cpus.data     0.007817                       # miss rate for WriteReq accesses
system.cpu.dcache.WriteReq_miss_rate::total     0.007817                       # miss rate for WriteReq accesses
system.cpu.dcache.WriteReq_avg_miss_latency::.switch_cpus.data 15219.856987                       # average WriteReq miss latency
system.cpu.dcache.WriteReq_avg_miss_latency::total 15219.856987                       # average WriteReq miss latency
system.cpu.dcache.WriteReq_mshr_hits::.switch_cpus.data      1628511                       # number of WriteReq MSHR hits
system.cpu.dcache.WriteReq_mshr_hits::total      1628511                       # number of WriteReq MSHR hits
system.cpu.dcache.WriteReq_mshr_misses::.switch_cpus.data      1210825                       # number of WriteReq MSHR misses
system.cpu.dcache.WriteReq_mshr_misses::total      1210825                       # number of WriteReq MSHR misses
system.cpu.dcache.WriteReq_mshr_miss_latency::.switch_cpus.data  18355611855                       # number of WriteReq MSHR miss cycles
system.cpu.dcache.WriteReq_mshr_miss_latency::total  18355611855                       # number of WriteReq MSHR miss cycles
system.cpu.dcache.WriteReq_mshr_miss_rate::.switch_cpus.data     0.003333                       # mshr miss rate for WriteReq accesses
system.cpu.dcache.WriteReq_mshr_miss_rate::total     0.003333                       # mshr miss rate for WriteReq accesses
system.cpu.dcache.WriteReq_avg_mshr_miss_latency::.switch_cpus.data 15159.591068                       # average WriteReq mshr miss latency
system.cpu.dcache.WriteReq_avg_mshr_miss_latency::total 15159.591068                       # average WriteReq mshr miss latency
system.cpu.dcache.WriteLineReq_hits::.switch_cpus.data           15                       # number of WriteLineReq hits
system.cpu.dcache.WriteLineReq_hits::total           15                       # number of WriteLineReq hits
system.cpu.dcache.WriteLineReq_misses::.switch_cpus.data          758                       # number of WriteLineReq misses
system.cpu.dcache.WriteLineReq_misses::total          758                       # number of WriteLineReq misses
system.cpu.dcache.WriteLineReq_miss_latency::.switch_cpus.data     13413769                       # number of WriteLineReq miss cycles
system.cpu.dcache.WriteLineReq_miss_latency::total     13413769                       # number of WriteLineReq miss cycles
system.cpu.dcache.WriteLineReq_accesses::.switch_cpus.data          773                       # number of WriteLineReq accesses(hits+misses)
system.cpu.dcache.WriteLineReq_accesses::total          773                       # number of WriteLineReq accesses(hits+misses)
system.cpu.dcache.WriteLineReq_miss_rate::.switch_cpus.data     0.980595                       # miss rate for WriteLineReq accesses
system.cpu.dcache.WriteLineReq_miss_rate::total     0.980595                       # miss rate for WriteLineReq accesses
system.cpu.dcache.WriteLineReq_avg_miss_latency::.switch_cpus.data 17696.265172                       # average WriteLineReq miss latency
system.cpu.dcache.WriteLineReq_avg_miss_latency::total 17696.265172                       # average WriteLineReq miss latency
system.cpu.dcache.WriteLineReq_mshr_misses::.switch_cpus.data          758                       # number of WriteLineReq MSHR misses
system.cpu.dcache.WriteLineReq_mshr_misses::total          758                       # number of WriteLineReq MSHR misses
system.cpu.dcache.WriteLineReq_mshr_miss_latency::.switch_cpus.data     12655769                       # number of WriteLineReq MSHR miss cycles
system.cpu.dcache.WriteLineReq_mshr_miss_latency::total     12655769                       # number of WriteLineReq MSHR miss cycles
system.cpu.dcache.WriteLineReq_mshr_miss_rate::.switch_cpus.data     0.980595                       # mshr miss rate for WriteLineReq accesses
system.cpu.dcache.WriteLineReq_mshr_miss_rate::total     0.980595                       # mshr miss rate for WriteLineReq accesses
system.cpu.dcache.WriteLineReq_avg_mshr_miss_latency::.switch_cpus.data 16696.265172                       # average WriteLineReq mshr miss latency
system.cpu.dcache.WriteLineReq_avg_mshr_miss_latency::total 16696.265172                       # average WriteLineReq mshr miss latency
system.cpu.dcache.SwapReq_hits::.switch_cpus.data         5478                       # number of SwapReq hits
system.cpu.dcache.SwapReq_hits::total            5478                       # number of SwapReq hits
system.cpu.dcache.SwapReq_misses::.switch_cpus.data          102                       # number of SwapReq misses
system.cpu.dcache.SwapReq_misses::total           102                       # number of SwapReq misses
system.cpu.dcache.SwapReq_miss_latency::.switch_cpus.data      1531000                       # number of SwapReq miss cycles
system.cpu.dcache.SwapReq_miss_latency::total      1531000                       # number of SwapReq miss cycles
system.cpu.dcache.SwapReq_accesses::.switch_cpus.data         5580                       # number of SwapReq accesses(hits+misses)
system.cpu.dcache.SwapReq_accesses::total         5580                       # number of SwapReq accesses(hits+misses)
system.cpu.dcache.SwapReq_miss_rate::.switch_cpus.data     0.018280                       # miss rate for SwapReq accesses
system.cpu.dcache.SwapReq_miss_rate::total     0.018280                       # miss rate for SwapReq accesses
system.cpu.dcache.SwapReq_avg_miss_latency::.switch_cpus.data 15009.803922                       # average SwapReq miss latency
system.cpu.dcache.SwapReq_avg_miss_latency::total 15009.803922                       # average SwapReq miss latency
system.cpu.dcache.SwapReq_mshr_misses::.switch_cpus.data          102                       # number of SwapReq MSHR misses
system.cpu.dcache.SwapReq_mshr_misses::total          102                       # number of SwapReq MSHR misses
system.cpu.dcache.SwapReq_mshr_miss_latency::.switch_cpus.data      1429000                       # number of SwapReq MSHR miss cycles
system.cpu.dcache.SwapReq_mshr_miss_latency::total      1429000                       # number of SwapReq MSHR miss cycles
system.cpu.dcache.SwapReq_mshr_miss_rate::.switch_cpus.data     0.018280                       # mshr miss rate for SwapReq accesses
system.cpu.dcache.SwapReq_mshr_miss_rate::total     0.018280                       # mshr miss rate for SwapReq accesses
system.cpu.dcache.SwapReq_avg_mshr_miss_latency::.switch_cpus.data 14009.803922                       # average SwapReq mshr miss latency
system.cpu.dcache.SwapReq_avg_mshr_miss_latency::total 14009.803922                       # average SwapReq mshr miss latency
system.cpu.dcache.ghosttags.tagsinuse    -2297802.440511                       # Cycle average of tags in use
system.cpu.dcache.ghosttags.total_refs              0                       # Total number of references to valid blocks.
system.cpu.dcache.ghosttags.sampled_refs            0                       # Sample count of references to valid blocks.
system.cpu.dcache.ghosttags.avg_refs              nan                       # Average number of references to valid blocks.
system.cpu.dcache.ghosttags.warmup_cycle 5741268179500                       # Cycle when the warmup percentage was hit.
system.cpu.dcache.ghosttags.occ_blocks::.switch_cpus.data 2790147.752952                       # Average occupied blocks per requestor
system.cpu.dcache.ghosttags.occ_percent::.switch_cpus.data 87192.117280                       # Average percentage of cache occupancy
system.cpu.dcache.ghosttags.occ_percent::total 87192.117280                       # Average percentage of cache occupancy
system.cpu.dcache.ghosttags.tag_accesses     30470149                       # Number of tag accesses
system.cpu.dcache.ghosttags.data_accesses     30470149                       # Number of data accesses
system.cpu.dcache.ghosttags.repl_invalid            0                       # Number of initial replacements
system.cpu.dcache.ghosttags.repl_valid_tag            0                       # Number of local replacements
system.cpu.dcache.ghosttags.repl_valid_data            0                       # Number of global replacements
system.cpu.dcache.ghosttags.power_state.pwrStateResidencyTicks::UNDEFINED 6260412019500                       # Cumulative time (in ticks) in various power states
system.cpu.dcache.power_state.pwrStateResidencyTicks::UNDEFINED 6260412019500                       # Cumulative time (in ticks) in various power states
system.cpu.dcache.tags.tagsinuse         -2787374.130486                       # Cycle average of tags in use
system.cpu.dcache.tags.total_refs           944505743                       # Total number of references to valid blocks.
system.cpu.dcache.tags.sampled_refs           9727986                       # Sample count of references to valid blocks.
system.cpu.dcache.tags.avg_refs             97.091602                       # Average number of references to valid blocks.
system.cpu.dcache.tags.warmup_cycle      5741267844000                       # Cycle when the warmup percentage was hit.
system.cpu.dcache.tags.occ_blocks::.cpu.data     0.128640                       # Average occupied blocks per requestor
system.cpu.dcache.tags.occ_blocks::.switch_cpus.data -2787374.259126                       # Average occupied blocks per requestor
system.cpu.dcache.tags.occ_percent::.cpu.data     0.000251                       # Average percentage of cache occupancy
system.cpu.dcache.tags.occ_percent::.switch_cpus.data -5444.090350                       # Average percentage of cache occupancy
system.cpu.dcache.tags.occ_percent::total -5444.090099                       # Average percentage of cache occupancy
system.cpu.dcache.tags.occ_task_id_blocks::1024          512                       # Occupied blocks per task id
system.cpu.dcache.tags.age_task_id_blocks_1024::0            3                       # Occupied blocks per task id
system.cpu.dcache.tags.age_task_id_blocks_1024::1           94                       # Occupied blocks per task id
system.cpu.dcache.tags.age_task_id_blocks_1024::2          228                       # Occupied blocks per task id
system.cpu.dcache.tags.age_task_id_blocks_1024::3          132                       # Occupied blocks per task id
system.cpu.dcache.tags.age_task_id_blocks_1024::4           55                       # Occupied blocks per task id
system.cpu.dcache.tags.occ_task_id_percent::1024            1                       # Percentage of cache occupancy per task id
system.cpu.dcache.tags.tag_accesses        7577865668                       # Number of tag accesses
system.cpu.dcache.tags.data_accesses       7577865668                       # Number of data accesses
system.cpu.dcache.tags.repl_invalid                 0                       # Number of initial replacements
system.cpu.dcache.tags.repl_valid_tag               0                       # Number of local replacements
system.cpu.dcache.tags.repl_valid_data              0                       # Number of global replacements
system.cpu.dcache.tags.power_state.pwrStateResidencyTicks::UNDEFINED 6260412019500                       # Cumulative time (in ticks) in various power states
system.cpu.dtb.instHits                             0                       # ITB inst hits
system.cpu.dtb.instMisses                           0                       # ITB inst misses
system.cpu.dtb.readHits                             0                       # DTB read hits
system.cpu.dtb.readMisses                           0                       # DTB read misses
system.cpu.dtb.writeHits                            0                       # DTB write hits
system.cpu.dtb.writeMisses                          0                       # DTB write misses
system.cpu.dtb.inserts                              0                       # Number of times an entry is inserted into the TLB
system.cpu.dtb.flushTlb                             2                       # Number of times complete TLB was flushed
system.cpu.dtb.flushTlbMva                          0                       # Number of times TLB was flushed by MVA
system.cpu.dtb.flushTlbMvaAsid                      0                       # Number of times TLB was flushed by MVA & ASID
system.cpu.dtb.flushTlbAsid                         0                       # Number of times TLB was flushed by ASID
system.cpu.dtb.flushedEntries                       0                       # Number of entries that have been flushed from TLB
system.cpu.dtb.alignFaults                          0                       # Number of TLB faults due to alignment restrictions
system.cpu.dtb.prefetchFaults                       0                       # Number of TLB faults due to prefetch
system.cpu.dtb.domainFaults                         0                       # Number of TLB faults due to domain restrictions
system.cpu.dtb.permsFaults                          0                       # Number of TLB faults due to permissions restrictions
system.cpu.dtb.readAccesses                         0                       # DTB read accesses
system.cpu.dtb.writeAccesses                        0                       # DTB write accesses
system.cpu.dtb.instAccesses                         0                       # ITB inst accesses
system.cpu.dtb.hits                                 0                       # Total TLB (inst and data) hits
system.cpu.dtb.misses                               0                       # Total TLB (inst and data) misses
system.cpu.dtb.accesses                             0                       # Total TLB (inst and data) accesses
system.cpu.dtb.stage2_mmu.stage2_tlb.instHits            0                       # ITB inst hits
system.cpu.dtb.stage2_mmu.stage2_tlb.instMisses            0                       # ITB inst misses
system.cpu.dtb.stage2_mmu.stage2_tlb.readHits            0                       # DTB read hits
system.cpu.dtb.stage2_mmu.stage2_tlb.readMisses            0                       # DTB read misses
system.cpu.dtb.stage2_mmu.stage2_tlb.writeHits            0                       # DTB write hits
system.cpu.dtb.stage2_mmu.stage2_tlb.writeMisses            0                       # DTB write misses
system.cpu.dtb.stage2_mmu.stage2_tlb.inserts            0                       # Number of times an entry is inserted into the TLB
system.cpu.dtb.stage2_mmu.stage2_tlb.flushTlb            0                       # Number of times complete TLB was flushed
system.cpu.dtb.stage2_mmu.stage2_tlb.flushTlbMva            0                       # Number of times TLB was flushed by MVA
system.cpu.dtb.stage2_mmu.stage2_tlb.flushTlbMvaAsid            0                       # Number of times TLB was flushed by MVA & ASID
system.cpu.dtb.stage2_mmu.stage2_tlb.flushTlbAsid            0                       # Number of times TLB was flushed by ASID
system.cpu.dtb.stage2_mmu.stage2_tlb.flushedEntries            0                       # Number of entries that have been flushed from TLB
system.cpu.dtb.stage2_mmu.stage2_tlb.alignFaults            0                       # Number of TLB faults due to alignment restrictions
system.cpu.dtb.stage2_mmu.stage2_tlb.prefetchFaults            0                       # Number of TLB faults due to prefetch
system.cpu.dtb.stage2_mmu.stage2_tlb.domainFaults            0                       # Number of TLB faults due to domain restrictions
system.cpu.dtb.stage2_mmu.stage2_tlb.permsFaults            0                       # Number of TLB faults due to permissions restrictions
system.cpu.dtb.stage2_mmu.stage2_tlb.readAccesses            0                       # DTB read accesses
system.cpu.dtb.stage2_mmu.stage2_tlb.writeAccesses            0                       # DTB write accesses
system.cpu.dtb.stage2_mmu.stage2_tlb.instAccesses            0                       # ITB inst accesses
system.cpu.dtb.stage2_mmu.stage2_tlb.hits            0                       # Total TLB (inst and data) hits
system.cpu.dtb.stage2_mmu.stage2_tlb.misses            0                       # Total TLB (inst and data) misses
system.cpu.dtb.stage2_mmu.stage2_tlb.accesses            0                       # Total TLB (inst and data) accesses
system.cpu.dtb.stage2_mmu.stage2_tlb.walker.walks            0                       # Table walker walks requested
system.cpu.dtb.stage2_mmu.stage2_tlb.walker.requestOrigin_Requested::Data            0                       # Table walker requests started/completed, data/inst
system.cpu.dtb.stage2_mmu.stage2_tlb.walker.requestOrigin_Requested::Inst            0                       # Table walker requests started/completed, data/inst
system.cpu.dtb.stage2_mmu.stage2_tlb.walker.requestOrigin_Requested::total            0                       # Table walker requests started/completed, data/inst
system.cpu.dtb.stage2_mmu.stage2_tlb.walker.requestOrigin_Completed::Data            0                       # Table walker requests started/completed, data/inst
system.cpu.dtb.stage2_mmu.stage2_tlb.walker.requestOrigin_Completed::Inst            0                       # Table walker requests started/completed, data/inst
system.cpu.dtb.stage2_mmu.stage2_tlb.walker.requestOrigin_Completed::total            0                       # Table walker requests started/completed, data/inst
system.cpu.dtb.stage2_mmu.stage2_tlb.walker.requestOrigin::total            0                       # Table walker requests started/completed, data/inst
system.cpu.dtb.stage2_mmu.stage2_tlb.walker.power_state.pwrStateResidencyTicks::UNDEFINED 6260412019500                       # Cumulative time (in ticks) in various power states
system.cpu.dtb.walker.walks                         0                       # Table walker walks requested
system.cpu.dtb.walker.requestOrigin_Requested::Data            0                       # Table walker requests started/completed, data/inst
system.cpu.dtb.walker.requestOrigin_Requested::Inst            0                       # Table walker requests started/completed, data/inst
system.cpu.dtb.walker.requestOrigin_Requested::total            0                       # Table walker requests started/completed, data/inst
system.cpu.dtb.walker.requestOrigin_Completed::Data            0                       # Table walker requests started/completed, data/inst
system.cpu.dtb.walker.requestOrigin_Completed::Inst            0                       # Table walker requests started/completed, data/inst
system.cpu.dtb.walker.requestOrigin_Completed::total            0                       # Table walker requests started/completed, data/inst
system.cpu.dtb.walker.requestOrigin::total            0                       # Table walker requests started/completed, data/inst
system.cpu.dtb.walker.power_state.pwrStateResidencyTicks::UNDEFINED 6260412019500                       # Cumulative time (in ticks) in various power states
system.cpu.icache.demand_hits::.cpu.inst           14                       # number of demand (read+write) hits
system.cpu.icache.demand_hits::.switch_cpus.inst    311754745                       # number of demand (read+write) hits
system.cpu.icache.demand_hits::total        311754759                       # number of demand (read+write) hits
system.cpu.icache.overall_hits::.cpu.inst           14                       # number of overall hits
system.cpu.icache.overall_hits::.switch_cpus.inst    311754745                       # number of overall hits
system.cpu.icache.overall_hits::total       311754759                       # number of overall hits
system.cpu.icache.demand_misses::.cpu.inst            6                       # number of demand (read+write) misses
system.cpu.icache.demand_misses::.switch_cpus.inst      7476485                       # number of demand (read+write) misses
system.cpu.icache.demand_misses::total        7476491                       # number of demand (read+write) misses
system.cpu.icache.overall_misses::.cpu.inst            6                       # number of overall misses
system.cpu.icache.overall_misses::.switch_cpus.inst      7476485                       # number of overall misses
system.cpu.icache.overall_misses::total       7476491                       # number of overall misses
system.cpu.icache.demand_miss_latency::.switch_cpus.inst 149328216626                       # number of demand (read+write) miss cycles
system.cpu.icache.demand_miss_latency::total 149328216626                       # number of demand (read+write) miss cycles
system.cpu.icache.overall_miss_latency::.switch_cpus.inst 149328216626                       # number of overall miss cycles
system.cpu.icache.overall_miss_latency::total 149328216626                       # number of overall miss cycles
system.cpu.icache.demand_accesses::.cpu.inst           20                       # number of demand (read+write) accesses
system.cpu.icache.demand_accesses::.switch_cpus.inst    319231230                       # number of demand (read+write) accesses
system.cpu.icache.demand_accesses::total    319231250                       # number of demand (read+write) accesses
system.cpu.icache.overall_accesses::.cpu.inst           20                       # number of overall (read+write) accesses
system.cpu.icache.overall_accesses::.switch_cpus.inst    319231230                       # number of overall (read+write) accesses
system.cpu.icache.overall_accesses::total    319231250                       # number of overall (read+write) accesses
system.cpu.icache.demand_miss_rate::.cpu.inst     0.300000                       # miss rate for demand accesses
system.cpu.icache.demand_miss_rate::.switch_cpus.inst     0.023420                       # miss rate for demand accesses
system.cpu.icache.demand_miss_rate::total     0.023420                       # miss rate for demand accesses
system.cpu.icache.overall_miss_rate::.cpu.inst     0.300000                       # miss rate for overall accesses
system.cpu.icache.overall_miss_rate::.switch_cpus.inst     0.023420                       # miss rate for overall accesses
system.cpu.icache.overall_miss_rate::total     0.023420                       # miss rate for overall accesses
system.cpu.icache.demand_avg_miss_latency::.switch_cpus.inst 19973.051056                       # average overall miss latency
system.cpu.icache.demand_avg_miss_latency::total 19973.035028                       # average overall miss latency
system.cpu.icache.overall_avg_miss_latency::.switch_cpus.inst 19973.051056                       # average overall miss latency
system.cpu.icache.overall_avg_miss_latency::total 19973.035028                       # average overall miss latency
system.cpu.icache.blocked_cycles::no_mshrs       950405                       # number of cycles access was blocked
system.cpu.icache.blocked_cycles::no_targets            0                       # number of cycles access was blocked
system.cpu.icache.blocked::no_mshrs             48043                       # number of cycles access was blocked
system.cpu.icache.blocked::no_targets               0                       # number of cycles access was blocked
system.cpu.icache.avg_blocked_cycles::no_mshrs    19.782382                       # average number of cycles each access was blocked
system.cpu.icache.avg_blocked_cycles::no_targets          nan                       # average number of cycles each access was blocked
system.cpu.icache.ghost_timestamp_misses            0                       # number of times timestamp policy causes a block to be inaccessible
system.cpu.icache.ghost_commits               4520871                       # number of cache lines moved from ghost to main
system.cpu.icache.same_leapfrogs                    0                       # number of times leapfrogging occurs with a shared MSHR request
system.cpu.icache.writebacks::.writebacks      9041237                       # number of writebacks
system.cpu.icache.writebacks::total           9041237                       # number of writebacks
system.cpu.icache.demand_mshr_hits::.switch_cpus.inst       337045                       # number of demand (read+write) MSHR hits
system.cpu.icache.demand_mshr_hits::total       337045                       # number of demand (read+write) MSHR hits
system.cpu.icache.overall_mshr_hits::.switch_cpus.inst       337045                       # number of overall MSHR hits
system.cpu.icache.overall_mshr_hits::total       337045                       # number of overall MSHR hits
system.cpu.icache.demand_mshr_misses::.switch_cpus.inst      7139440                       # number of demand (read+write) MSHR misses
system.cpu.icache.demand_mshr_misses::total      7139440                       # number of demand (read+write) MSHR misses
system.cpu.icache.overall_mshr_misses::.switch_cpus.inst      7139440                       # number of overall MSHR misses
system.cpu.icache.overall_mshr_misses::total      7139440                       # number of overall MSHR misses
system.cpu.icache.demand_mshr_miss_latency::.switch_cpus.inst 136312824820                       # number of demand (read+write) MSHR miss cycles
system.cpu.icache.demand_mshr_miss_latency::total 136312824820                       # number of demand (read+write) MSHR miss cycles
system.cpu.icache.overall_mshr_miss_latency::.switch_cpus.inst 136312824820                       # number of overall MSHR miss cycles
system.cpu.icache.overall_mshr_miss_latency::total 136312824820                       # number of overall MSHR miss cycles
system.cpu.icache.demand_mshr_miss_rate::.switch_cpus.inst     0.022364                       # mshr miss rate for demand accesses
system.cpu.icache.demand_mshr_miss_rate::total     0.022364                       # mshr miss rate for demand accesses
system.cpu.icache.overall_mshr_miss_rate::.switch_cpus.inst     0.022364                       # mshr miss rate for overall accesses
system.cpu.icache.overall_mshr_miss_rate::total     0.022364                       # mshr miss rate for overall accesses
system.cpu.icache.demand_avg_mshr_miss_latency::.switch_cpus.inst 19092.929532                       # average overall mshr miss latency
system.cpu.icache.demand_avg_mshr_miss_latency::total 19092.929532                       # average overall mshr miss latency
system.cpu.icache.overall_avg_mshr_miss_latency::.switch_cpus.inst 19092.929532                       # average overall mshr miss latency
system.cpu.icache.overall_avg_mshr_miss_latency::total 19092.929532                       # average overall mshr miss latency
system.cpu.icache.replacements                4520513                       # number of replacements
system.cpu.icache.ReadReq_hits::.cpu.inst           14                       # number of ReadReq hits
system.cpu.icache.ReadReq_hits::.switch_cpus.inst    311754745                       # number of ReadReq hits
system.cpu.icache.ReadReq_hits::total       311754759                       # number of ReadReq hits
system.cpu.icache.ReadReq_misses::.cpu.inst            6                       # number of ReadReq misses
system.cpu.icache.ReadReq_misses::.switch_cpus.inst      7476485                       # number of ReadReq misses
system.cpu.icache.ReadReq_misses::total       7476491                       # number of ReadReq misses
system.cpu.icache.ReadReq_miss_latency::.switch_cpus.inst 149328216626                       # number of ReadReq miss cycles
system.cpu.icache.ReadReq_miss_latency::total 149328216626                       # number of ReadReq miss cycles
system.cpu.icache.ReadReq_accesses::.cpu.inst           20                       # number of ReadReq accesses(hits+misses)
system.cpu.icache.ReadReq_accesses::.switch_cpus.inst    319231230                       # number of ReadReq accesses(hits+misses)
system.cpu.icache.ReadReq_accesses::total    319231250                       # number of ReadReq accesses(hits+misses)
system.cpu.icache.ReadReq_miss_rate::.cpu.inst     0.300000                       # miss rate for ReadReq accesses
system.cpu.icache.ReadReq_miss_rate::.switch_cpus.inst     0.023420                       # miss rate for ReadReq accesses
system.cpu.icache.ReadReq_miss_rate::total     0.023420                       # miss rate for ReadReq accesses
system.cpu.icache.ReadReq_avg_miss_latency::.switch_cpus.inst 19973.051056                       # average ReadReq miss latency
system.cpu.icache.ReadReq_avg_miss_latency::total 19973.035028                       # average ReadReq miss latency
system.cpu.icache.ReadReq_mshr_hits::.switch_cpus.inst       337045                       # number of ReadReq MSHR hits
system.cpu.icache.ReadReq_mshr_hits::total       337045                       # number of ReadReq MSHR hits
system.cpu.icache.ReadReq_mshr_misses::.switch_cpus.inst      7139440                       # number of ReadReq MSHR misses
system.cpu.icache.ReadReq_mshr_misses::total      7139440                       # number of ReadReq MSHR misses
system.cpu.icache.ReadReq_mshr_miss_latency::.switch_cpus.inst 136312824820                       # number of ReadReq MSHR miss cycles
system.cpu.icache.ReadReq_mshr_miss_latency::total 136312824820                       # number of ReadReq MSHR miss cycles
system.cpu.icache.ReadReq_mshr_miss_rate::.switch_cpus.inst     0.022364                       # mshr miss rate for ReadReq accesses
system.cpu.icache.ReadReq_mshr_miss_rate::total     0.022364                       # mshr miss rate for ReadReq accesses
system.cpu.icache.ReadReq_avg_mshr_miss_latency::.switch_cpus.inst 19092.929532                       # average ReadReq mshr miss latency
system.cpu.icache.ReadReq_avg_mshr_miss_latency::total 19092.929532                       # average ReadReq mshr miss latency
system.cpu.icache.ghosttags.tagsinuse    -2412253.608507                       # Cycle average of tags in use
system.cpu.icache.ghosttags.total_refs              0                       # Total number of references to valid blocks.
system.cpu.icache.ghosttags.sampled_refs            0                       # Sample count of references to valid blocks.
system.cpu.icache.ghosttags.avg_refs              nan                       # Average number of references to valid blocks.
system.cpu.icache.ghosttags.warmup_cycle 5741268068500                       # Cycle when the warmup percentage was hit.
system.cpu.icache.ghosttags.occ_blocks::.switch_cpus.inst 3807628.945995                       # Average occupied blocks per requestor
system.cpu.icache.ghosttags.occ_percent::.switch_cpus.inst 118988.404562                       # Average percentage of cache occupancy
system.cpu.icache.ghosttags.occ_percent::total 118988.404562                       # Average percentage of cache occupancy
system.cpu.icache.ghosttags.tag_accesses     23277422                       # Number of tag accesses
system.cpu.icache.ghosttags.data_accesses     23277422                       # Number of data accesses
system.cpu.icache.ghosttags.repl_invalid            0                       # Number of initial replacements
system.cpu.icache.ghosttags.repl_valid_tag            0                       # Number of local replacements
system.cpu.icache.ghosttags.repl_valid_data            0                       # Number of global replacements
system.cpu.icache.ghosttags.power_state.pwrStateResidencyTicks::UNDEFINED 6260412019500                       # Cumulative time (in ticks) in various power states
system.cpu.icache.power_state.pwrStateResidencyTicks::UNDEFINED 6260412019500                       # Cumulative time (in ticks) in various power states
system.cpu.icache.tags.tagsinuse         -3807121.462100                       # Cycle average of tags in use
system.cpu.icache.tags.total_refs           323412833                       # Total number of references to valid blocks.
system.cpu.icache.tags.sampled_refs          11658074                       # Sample count of references to valid blocks.
system.cpu.icache.tags.avg_refs             27.741532                       # Average number of references to valid blocks.
system.cpu.icache.tags.warmup_cycle      5741267843500                       # Cycle when the warmup percentage was hit.
system.cpu.icache.tags.occ_blocks::.cpu.inst     0.478850                       # Average occupied blocks per requestor
[...]
system.switch_cpus.fetch.pendingTrapStallCycles        23028                       # Number of stall cycles due to pending traps
system.switch_cpus.fetch.icacheWaitRetryStallCycles        93636                       # Number of stall cycles due to full MSHR
system.switch_cpus.fetch.cacheLines         319232145                       # Number of cache lines fetched
system.switch_cpus.fetch.icacheSquashes       4284462                       # Number of outstanding Icache misses that were squashed
system.switch_cpus.fetch.nisnDist::samples   1002658945                       # Number of instructions fetched each cycle (Total)
system.switch_cpus.fetch.nisnDist::mean      2.595820                       # Number of instructions fetched each cycle (Total)
system.switch_cpus.fetch.nisnDist::stdev     3.202772                       # Number of instructions fetched each cycle (Total)
system.switch_cpus.fetch.nisnDist::underflows            0      0.00%      0.00% # Number of instructions fetched each cycle (Total)
system.switch_cpus.fetch.nisnDist::0        501585312     50.03%     50.03% # Number of instructions fetched each cycle (Total)
system.switch_cpus.fetch.nisnDist::1         44178238      4.41%     54.43% # Number of instructions fetched each cycle (Total)
system.switch_cpus.fetch.nisnDist::2         80841655      8.06%     62.49% # Number of instructions fetched each cycle (Total)
system.switch_cpus.fetch.nisnDist::3         46153196      4.60%     67.10% # Number of instructions fetched each cycle (Total)
system.switch_cpus.fetch.nisnDist::4         48957993      4.88%     71.98% # Number of instructions fetched each cycle (Total)
system.switch_cpus.fetch.nisnDist::5         36864830      3.68%     75.66% # Number of instructions fetched each cycle (Total)
system.switch_cpus.fetch.nisnDist::6         24010940      2.39%     78.05% # Number of instructions fetched each cycle (Total)
system.switch_cpus.fetch.nisnDist::7         26354554      2.63%     80.68% # Number of instructions fetched each cycle (Total)
system.switch_cpus.fetch.nisnDist::8        193712227     19.32%    100.00% # Number of instructions fetched each cycle (Total)
system.switch_cpus.fetch.nisnDist::overflows            0      0.00%    100.00% # Number of instructions fetched each cycle (Total)
system.switch_cpus.fetch.nisnDist::min_value            0                       # Number of instructions fetched each cycle (Total)
system.switch_cpus.fetch.nisnDist::max_value            8                       # Number of instructions fetched each cycle (Total)
system.switch_cpus.fetch.nisnDist::total   1002658945                       # Number of instructions fetched each cycle (Total)
system.switch_cpus.fetch.branchRate          0.396422                       # Number of branch fetches per cycle
system.switch_cpus.fetch.rate                2.217507                       # Number of inst fetches per cycle
system.switch_cpus.itb.instHits                     0                       # ITB inst hits
system.switch_cpus.itb.instMisses                   0                       # ITB inst misses
system.switch_cpus.itb.readHits                     0                       # DTB read hits
system.switch_cpus.itb.readMisses                   0                       # DTB read misses
system.switch_cpus.itb.writeHits                    0                       # DTB write hits
system.switch_cpus.itb.writeMisses                  0                       # DTB write misses
system.switch_cpus.itb.inserts                      0                       # Number of times an entry is inserted into the TLB
system.switch_cpus.itb.flushTlb                     0                       # Number of times complete TLB was flushed
system.switch_cpus.itb.flushTlbMva                  0                       # Number of times TLB was flushed by MVA
system.switch_cpus.itb.flushTlbMvaAsid              0                       # Number of times TLB was flushed by MVA & ASID
system.switch_cpus.itb.flushTlbAsid                 0                       # Number of times TLB was flushed by ASID
system.switch_cpus.itb.flushedEntries               0                       # Number of entries that have been flushed from TLB
system.switch_cpus.itb.alignFaults                  0                       # Number of TLB faults due to alignment restrictions
system.switch_cpus.itb.prefetchFaults               0                       # Number of TLB faults due to prefetch
system.switch_cpus.itb.domainFaults                 0                       # Number of TLB faults due to domain restrictions
system.switch_cpus.itb.permsFaults                  0                       # Number of TLB faults due to permissions restrictions
system.switch_cpus.itb.readAccesses                 0                       # DTB read accesses
system.switch_cpus.itb.writeAccesses                0                       # DTB write accesses
system.switch_cpus.itb.instAccesses                 0                       # ITB inst accesses
system.switch_cpus.itb.hits                         0                       # Total TLB (inst and data) hits
system.switch_cpus.itb.misses                       0                       # Total TLB (inst and data) misses
system.switch_cpus.itb.accesses                     0                       # Total TLB (inst and data) accesses
system.switch_cpus.itb.stage2_mmu.stage2_tlb.instHits            0                       # ITB inst hits
system.switch_cpus.itb.stage2_mmu.stage2_tlb.instMisses            0                       # ITB inst misses
system.switch_cpus.itb.stage2_mmu.stage2_tlb.readHits            0                       # DTB read hits
system.switch_cpus.itb.stage2_mmu.stage2_tlb.readMisses            0                       # DTB read misses
system.switch_cpus.itb.stage2_mmu.stage2_tlb.writeHits            0                       # DTB write hits
system.switch_cpus.itb.stage2_mmu.stage2_tlb.writeMisses            0                       # DTB write misses
system.switch_cpus.itb.stage2_mmu.stage2_tlb.inserts            0                       # Number of times an entry is inserted into the TLB
system.switch_cpus.itb.stage2_mmu.stage2_tlb.flushTlb            0                       # Number of times complete TLB was flushed
system.switch_cpus.itb.stage2_mmu.stage2_tlb.flushTlbMva            0                       # Number of times TLB was flushed by MVA
system.switch_cpus.itb.stage2_mmu.stage2_tlb.flushTlbMvaAsid            0                       # Number of times TLB was flushed by MVA & ASID
system.switch_cpus.itb.stage2_mmu.stage2_tlb.flushTlbAsid            0                       # Number of times TLB was flushed by ASID
system.switch_cpus.itb.stage2_mmu.stage2_tlb.flushedEntries            0                       # Number of entries that have been flushed from TLB
system.switch_cpus.itb.stage2_mmu.stage2_tlb.alignFaults            0                       # Number of TLB faults due to alignment restrictions
system.switch_cpus.itb.stage2_mmu.stage2_tlb.prefetchFaults            0                       # Number of TLB faults due to prefetch
system.switch_cpus.itb.stage2_mmu.stage2_tlb.domainFaults            0                       # Number of TLB faults due to domain restrictions
system.switch_cpus.itb.stage2_mmu.stage2_tlb.permsFaults            0                       # Number of TLB faults due to permissions restrictions
system.switch_cpus.itb.stage2_mmu.stage2_tlb.readAccesses            0                       # DTB read accesses
system.switch_cpus.itb.stage2_mmu.stage2_tlb.writeAccesses            0                       # DTB write accesses
system.switch_cpus.itb.stage2_mmu.stage2_tlb.instAccesses            0                       # ITB inst accesses
system.switch_cpus.itb.stage2_mmu.stage2_tlb.hits            0                       # Total TLB (inst and data) hits
system.switch_cpus.itb.stage2_mmu.stage2_tlb.misses            0                       # Total TLB (inst and data) misses
system.switch_cpus.itb.stage2_mmu.stage2_tlb.accesses            0                       # Total TLB (inst and data) accesses
system.switch_cpus.itb.stage2_mmu.stage2_tlb.walker.walks            0                       # Table walker walks requested
system.switch_cpus.itb.stage2_mmu.stage2_tlb.walker.requestOrigin_Requested::Data            0                       # Table walker requests started/completed, data/inst
system.switch_cpus.itb.stage2_mmu.stage2_tlb.walker.requestOrigin_Requested::Inst            0                       # Table walker requests started/completed, data/inst
system.switch_cpus.itb.stage2_mmu.stage2_tlb.walker.requestOrigin_Requested::total            0                       # Table walker requests started/completed, data/inst
system.switch_cpus.itb.stage2_mmu.stage2_tlb.walker.requestOrigin_Completed::Data            0                       # Table walker requests started/completed, data/inst
system.switch_cpus.itb.stage2_mmu.stage2_tlb.walker.requestOrigin_Completed::Inst            0                       # Table walker requests started/completed, data/inst
system.switch_cpus.itb.stage2_mmu.stage2_tlb.walker.requestOrigin_Completed::total            0                       # Table walker requests started/completed, data/inst
system.switch_cpus.itb.stage2_mmu.stage2_tlb.walker.requestOrigin::total            0                       # Table walker requests started/completed, data/inst
system.switch_cpus.itb.stage2_mmu.stage2_tlb.walker.power_state.pwrStateResidencyTicks::UNDEFINED 6260412019500                       # Cumulative time (in ticks) in various power states
system.switch_cpus.itb.walker.walks                 0                       # Table walker walks requested
system.switch_cpus.itb.walker.requestOrigin_Requested::Data            0                       # Table walker requests started/completed, data/inst
system.switch_cpus.itb.walker.requestOrigin_Requested::Inst            0                       # Table walker requests started/completed, data/inst
system.switch_cpus.itb.walker.requestOrigin_Requested::total            0                       # Table walker requests started/completed, data/inst
system.switch_cpus.itb.walker.requestOrigin_Completed::Data            0                       # Table walker requests started/completed, data/inst
system.switch_cpus.itb.walker.requestOrigin_Completed::Inst            0                       # Table walker requests started/completed, data/inst
system.switch_cpus.itb.walker.requestOrigin_Completed::total            0                       # Table walker requests started/completed, data/inst
system.switch_cpus.itb.walker.requestOrigin::total            0                       # Table walker requests started/completed, data/inst
system.switch_cpus.itb.walker.power_state.pwrStateResidencyTicks::UNDEFINED 6260412019500                       # Cumulative time (in ticks) in various power states
system.switch_cpus.lsq0.forwLoads            19917372                       # Number of loads that had data forwarded from stores
system.switch_cpus.lsq0.squashedLoads        58933126                       # Number of loads squashed
system.switch_cpus.lsq0.ignoredResponses       279882                       # Number of memory responses ignored because the instruction is squashed
system.switch_cpus.lsq0.memOrderViolation       268558                       # Number of memory ordering violations
system.switch_cpus.lsq0.squashedStores       36777304                       # Number of stores squashed
system.switch_cpus.lsq0.rescheduledLoads      7716508                       # Number of loads that were rescheduled
system.switch_cpus.lsq0.blockedByCache         260134                       # Number of times an access to memory failed due to the cache being blocked
system.switch_cpus.power_state.pwrStateResidencyTicks::OFF 519144176500                       # Cumulative time (in ticks) in various power states
system.switch_cpus.rename.squashCycles        7384987                       # Number of cycles rename is squashing
system.switch_cpus.rename.idleCycles        433222566                       # Number of cycles rename is idle
system.switch_cpus.rename.blockCycles        45679056                       # Number of cycles rename is blocking
system.switch_cpus.rename.serializeStallCycles      5269825                       # count of cycles rename stalledfor serializing inst
system.switch_cpus.rename.runCycles         474969649                       # Number of cycles rename is running
system.switch_cpus.rename.unblockCycles      36132858                       # Number of cycles rename is unblocking
system.switch_cpus.rename.renamedInsts     2536245735                       # Number of instructions processed by rename
system.switch_cpus.rename.ROBFullEvents        123944                       # Number of times rename has blocked due to ROB full
system.switch_cpus.rename.IQFullEvents        5062183                       # Number of times rename has blocked due to IQ full
system.switch_cpus.rename.LQFullEvents       25829519                       # Number of times rename has blocked due to LQ full
system.switch_cpus.rename.SQFullEvents        4690894                       # Number of times rename has blocked due to SQ full
system.switch_cpus.rename.renamedOperands   2516382420                       # Number of destination operands rename has renamed
system.switch_cpus.rename.lookups          3622168173                       # Number of register rename lookups that rename has made
system.switch_cpus.rename.intLookups       2893498243                       # Number of integer rename lookups
system.switch_cpus.rename.vecLookups          3441758                       # Number of vector rename lookups
system.switch_cpus.rename.vecPredLookups       673839                       # Number of vector predicate rename lookups
system.switch_cpus.rename.committedMaps    2238463984                       # Number of HB maps that are committed
system.switch_cpus.rename.undoneMaps        277918369                       # Number of HB maps that are undone due to squashing
system.switch_cpus.rename.serializing          233656                       # count of serializing insts renamed
system.switch_cpus.rename.tempSerializing           85                       # count of temporary serializing insts renamed
system.switch_cpus.rename.skidInsts          33919177                       # count of insts added to the skid buffer
system.switch_cpus.rob.reads               3321633836                       # The number of ROB reads
system.switch_cpus.rob.writes              5037206479                       # The number of ROB writes
system.switch_cpus.thread0.numInsts        2000000004                       # Number of Instructions committed
system.switch_cpus.thread0.numOps          2259497414                       # Number of Ops committed
system.switch_cpus.thread0.numMemRefs               0                       # Number of Memory References
system.tol2bus.trans_dist::ReadResp          12472718                       # Transaction distribution
system.tol2bus.trans_dist::WritebackDirty      1218579                       # Transaction distribution
system.tol2bus.trans_dist::WritebackClean      7708535                       # Transaction distribution
system.tol2bus.trans_dist::CleanEvict         4660226                       # Transaction distribution
system.tol2bus.trans_dist::HardPFReq            27467                       # Transaction distribution
system.tol2bus.trans_dist::HardPFResp               1                       # Transaction distribution
system.tol2bus.trans_dist::UpgradeReq          795094                       # Transaction distribution
system.tol2bus.trans_dist::UpgradeResp         795094                       # Transaction distribution
system.tol2bus.trans_dist::ReadExReq           416333                       # Transaction distribution
system.tol2bus.trans_dist::ReadExResp          416333                       # Transaction distribution
system.tol2bus.trans_dist::ReadCleanReq      12472706                       # Transaction distribution
system.tol2bus.trans_dist::ReadSharedReq           12                       # Transaction distribution
system.tol2bus.trans_dist::InvalidateReq         8029                       # Transaction distribution
system.tol2bus.trans_dist::InvalidateResp         8029                       # Transaction distribution
system.tol2bus.pkt_count_system.cpu.icache.mem_side_port::system.l2.cpu_side_port     21416795                       # Packet count per connected requestor and responder (bytes)
system.tol2bus.pkt_count_system.cpu.dcache.mem_side_port::system.l2.cpu_side_port     18856855                       # Packet count per connected requestor and responder (bytes)
system.tol2bus.pkt_count::total              40273650                       # Packet count per connected requestor and responder (bytes)
system.tol2bus.pkt_size_system.cpu.icache.mem_side_port::system.l2.cpu_side_port    746171776                       # Cumulative packet size per connected requestor and responder (bytes)
system.tol2bus.pkt_size_system.cpu.dcache.mem_side_port::system.l2.cpu_side_port    650006656                       # Cumulative packet size per connected requestor and responder (bytes)
system.tol2bus.pkt_size::total             1396178432                       # Cumulative packet size per connected requestor and responder (bytes)
system.tol2bus.snoops                          725507                       # Total snoops (count)
system.tol2bus.snoopTraffic                     56256                       # Total snoop traffic (bytes)
system.tol2bus.snoop_fanout::samples         14416802                       # Request fanout histogram
system.tol2bus.snoop_fanout::mean            0.052314                       # Request fanout histogram
system.tol2bus.snoop_fanout::stdev           0.222735                       # Request fanout histogram
system.tol2bus.snoop_fanout::underflows             0      0.00%      0.00% # Request fanout histogram
system.tol2bus.snoop_fanout::0               13662838     94.77%     94.77% # Request fanout histogram
system.tol2bus.snoop_fanout::1                 753723      5.23%    100.00% # Request fanout histogram
system.tol2bus.snoop_fanout::2                    241      0.00%    100.00% # Request fanout histogram
system.tol2bus.snoop_fanout::overflows              0      0.00%    100.00% # Request fanout histogram
system.tol2bus.snoop_fanout::min_value              0                       # Request fanout histogram
system.tol2bus.snoop_fanout::max_value              2                       # Request fanout histogram
system.tol2bus.snoop_fanout::total           14416802                       # Request fanout histogram
system.tol2bus.power_state.pwrStateResidencyTicks::UNDEFINED 6260412019500                       # Cumulative time (in ticks) in various power states
system.tol2bus.reqLayer0.occupancy        26834424720                       # Layer occupancy (ticks)
system.tol2bus.reqLayer0.utilization              5.2                       # Layer utilization (%)
system.tol2bus.respLayer0.occupancy       10722440386                       # Layer occupancy (ticks)
system.tol2bus.respLayer0.utilization             2.1                       # Layer utilization (%)
system.tol2bus.respLayer1.occupancy        9027640139                       # Layer occupancy (ticks)
system.tol2bus.respLayer1.utilization             1.7                       # Layer utilization (%)
system.tol2bus.snoopLayer0.occupancy             1501                       # Layer occupancy (ticks)
system.tol2bus.snoopLayer0.utilization            0.0                       # Layer utilization (%)
system.voltage_domain.voltage                       1                       # Voltage in Volts

---------- End Simulation Statistics   ----------
