
*** ChampSim Multicore Out-of-Order Simulator ***

Warmup Instructions: 50000000
Simulation Instructions: 50000000
Number of CPUs: 2
LLC sets: 4096
LLC ways: 16
Off-chip DRAM Size: 4096 MB Channels: 1 Width: 64-bit Data Rate: 6400 MT/s
CPU 0 runs ../Given/traces//605.mcf_s-1554B.champsimtrace.xz
.xz
CPU 1 runs ../Given/traces//600.perlbench_s-570B.champsimtrace.xz
.xz
CPU 0 Bimodal branch predictor
BTB has LRU replacement policy
ITLB has LRU replacement policy
DTLB has LRU replacement policy
STLB has LRU replacement policy
L1I has LRU replacement policy
L1D has LRU replacement policy
L2C has LRU replacement policy
LLC has LRU replacement policy
CPU 1 Bimodal branch predictor
BTB has LRU replacement policy
ITLB has LRU replacement policy
DTLB has LRU replacement policy
STLB has LRU replacement policy
L1I has LRU replacement policy
L1D has LRU replacement policy
L2C has LRU replacement policy
LLC has LRU replacement policy
Heartbeat CPU 1 instructions: 10000003 cycles: 2894411 heartbeat IPC: 3.45494 cumulative IPC: 3.45494 (Simulation time: 0 hr 0 min 29 sec) 
Heartbeat CPU 0 instructions: 10000001 cycles: 3588596 heartbeat IPC: 2.78661 cumulative IPC: 2.78661 (Simulation time: 0 hr 0 min 36 sec) 
Heartbeat CPU 1 instructions: 20000003 cycles: 5753399 heartbeat IPC: 3.49774 cumulative IPC: 3.47621 (Simulation time: 0 hr 0 min 58 sec) 
Heartbeat CPU 0 instructions: 20000000 cycles: 7199178 heartbeat IPC: 2.76964 cumulative IPC: 2.7781 (Simulation time: 0 hr 1 min 14 sec) 
Heartbeat CPU 1 instructions: 30000003 cycles: 8649129 heartbeat IPC: 3.45336 cumulative IPC: 3.46856 (Simulation time: 0 hr 1 min 31 sec) 
Heartbeat CPU 0 instructions: 30000002 cycles: 10819829 heartbeat IPC: 2.76193 cumulative IPC: 2.77269 (Simulation time: 0 hr 1 min 54 sec) 
Heartbeat CPU 1 instructions: 40000002 cycles: 11520735 heartbeat IPC: 3.48237 cumulative IPC: 3.472 (Simulation time: 0 hr 2 min 3 sec) 
Heartbeat CPU 1 instructions: 50000002 cycles: 14390589 heartbeat IPC: 3.4845 cumulative IPC: 3.47449 (Simulation time: 0 hr 2 min 38 sec) 
Heartbeat CPU 0 instructions: 40000001 cycles: 14429529 heartbeat IPC: 2.77031 cumulative IPC: 2.77209 (Simulation time: 0 hr 2 min 38 sec) 
Heartbeat CPU 1 instructions: 60000001 cycles: 17756827 heartbeat IPC: 2.97067 cumulative IPC: 0.563164 (Simulation time: 0 hr 3 min 9 sec) 
Heartbeat CPU 0 instructions: 50000000 cycles: 18041202 heartbeat IPC: 2.7688 cumulative IPC: 2.77143 (Simulation time: 0 hr 3 min 12 sec) 

Warmup complete CPU 0 instructions: 50000004 cycles: 18041203 (Simulation time: 0 hr 3 min 12 sec) 
Warmup complete CPU 1 instructions: 60787279 cycles: 18041202 (Simulation time: 0 hr 3 min 12 sec) 

Heartbeat CPU 1 instructions: 70000000 cycles: 41450055 heartbeat IPC: 0.422061 cumulative IPC: 0.393557 (Simulation time: 0 hr 3 min 49 sec) 
Heartbeat CPU 1 instructions: 80000002 cycles: 67767829 heartbeat IPC: 0.379971 cumulative IPC: 0.386367 (Simulation time: 0 hr 4 min 29 sec) 
Heartbeat CPU 0 instructions: 60000000 cycles: 87455329 heartbeat IPC: 0.144063 cumulative IPC: 0.144063 (Simulation time: 0 hr 4 min 54 sec) 
Heartbeat CPU 1 instructions: 90000003 cycles: 99630773 heartbeat IPC: 0.313844 cumulative IPC: 0.358045 (Simulation time: 0 hr 5 min 9 sec) 
Heartbeat CPU 1 instructions: 100000002 cycles: 116175729 heartbeat IPC: 0.604414 cumulative IPC: 0.399581 (Simulation time: 0 hr 5 min 40 sec) 
Heartbeat CPU 1 instructions: 110000000 cycles: 132801542 heartbeat IPC: 0.601474 cumulative IPC: 0.42883 (Simulation time: 0 hr 6 min 10 sec) 
Finished CPU 1 instructions: 50000002 cycles: 116197505 cumulative IPC: 0.430302 (Simulation time: 0 hr 6 min 12 sec) 
Heartbeat CPU 1 instructions: 120000003 cycles: 150120193 heartbeat IPC: 0.577412 cumulative IPC: 0.448313 (Simulation time: 0 hr 6 min 38 sec) 
Heartbeat CPU 0 instructions: 70000001 cycles: 158270356 heartbeat IPC: 0.141213 cumulative IPC: 0.142624 (Simulation time: 0 hr 6 min 51 sec) 
Heartbeat CPU 1 instructions: 130000000 cycles: 167237125 heartbeat IPC: 0.584217 cumulative IPC: 0.463905 (Simulation time: 0 hr 7 min 5 sec) 
Heartbeat CPU 1 instructions: 140000000 cycles: 199732442 heartbeat IPC: 0.307737 cumulative IPC: 0.435974 (Simulation time: 0 hr 7 min 42 sec) 
Heartbeat CPU 1 instructions: 150000002 cycles: 229851945 heartbeat IPC: 0.332011 cumulative IPC: 0.421191 (Simulation time: 0 hr 8 min 21 sec) 
Heartbeat CPU 0 instructions: 80000000 cycles: 230812482 heartbeat IPC: 0.137851 cumulative IPC: 0.140996 (Simulation time: 0 hr 8 min 22 sec) 
Heartbeat CPU 1 instructions: 160000001 cycles: 254822985 heartbeat IPC: 0.400464 cumulative IPC: 0.419005 (Simulation time: 0 hr 8 min 54 sec) 
Heartbeat CPU 1 instructions: 170000001 cycles: 273372949 heartbeat IPC: 0.539085 cumulative IPC: 0.427729 (Simulation time: 0 hr 9 min 24 sec) 
Heartbeat CPU 1 instructions: 180000000 cycles: 296731330 heartbeat IPC: 0.428112 cumulative IPC: 0.427761 (Simulation time: 0 hr 9 min 59 sec) 
Heartbeat CPU 0 instructions: 90000001 cycles: 302079800 heartbeat IPC: 0.140317 cumulative IPC: 0.140826 (Simulation time: 0 hr 10 min 6 sec) 
Heartbeat CPU 1 instructions: 190000001 cycles: 329149794 heartbeat IPC: 0.308466 cumulative IPC: 0.41533 (Simulation time: 0 hr 10 min 41 sec) 
Heartbeat CPU 1 instructions: 200000001 cycles: 359958234 heartbeat IPC: 0.324586 cumulative IPC: 0.407154 (Simulation time: 0 hr 11 min 20 sec) 
Heartbeat CPU 0 instructions: 100000001 cycles: 371946574 heartbeat IPC: 0.14313 cumulative IPC: 0.141281 (Simulation time: 0 hr 11 min 33 sec) 
Finished CPU 0 instructions: 50000001 cycles: 353905372 cumulative IPC: 0.141281 (Simulation time: 0 hr 11 min 33 sec) 

ChampSim completed all CPUs

Total Simulation Statistics (not including warmup)

CPU 0 cumulative IPC: 0.141281 instructions: 50000001 cycles: 353905372
ITLB TOTAL     ACCESS:   10935208  HIT:   10935208  MISS:          0  HIT %:        100  MISS %:          0   MPKI: 0
ITLB LOAD      ACCESS:          0  HIT:          0  MISS:          0  HIT %:       -nan  MISS %:       -nan   MPKI: 0
ITLB RFO       ACCESS:          0  HIT:          0  MISS:          0  HIT %:       -nan  MISS %:       -nan   MPKI: 0
ITLB PREFETCH  ACCESS:          0  HIT:          0  MISS:          0  HIT %:       -nan  MISS %:       -nan   MPKI: 0
ITLB WRITEBACK ACCESS:          0  HIT:          0  MISS:          0  HIT %:       -nan  MISS %:       -nan   MPKI: 0
DTLB TOTAL     ACCESS:   16039366  HIT:   15843896  MISS:     195470  HIT %:    98.7813  MISS %:    1.21869   MPKI: 3.9094
DTLB LOAD      ACCESS:          0  HIT:          0  MISS:          0  HIT %:       -nan  MISS %:       -nan   MPKI: 0
DTLB RFO       ACCESS:          0  HIT:          0  MISS:          0  HIT %:       -nan  MISS %:       -nan   MPKI: 0
DTLB PREFETCH  ACCESS:          0  HIT:          0  MISS:          0  HIT %:       -nan  MISS %:       -nan   MPKI: 0
DTLB WRITEBACK ACCESS:          0  HIT:          0  MISS:          0  HIT %:       -nan  MISS %:       -nan   MPKI: 0
STLB TOTAL     ACCESS:     195470  HIT:     190992  MISS:       4478  HIT %:    97.7091  MISS %:    2.29089   MPKI: 0.08956
STLB LOAD      ACCESS:          0  HIT:          0  MISS:          0  HIT %:       -nan  MISS %:       -nan   MPKI: 0
STLB RFO       ACCESS:          0  HIT:          0  MISS:          0  HIT %:       -nan  MISS %:       -nan   MPKI: 0
STLB PREFETCH  ACCESS:          0  HIT:          0  MISS:          0  HIT %:       -nan  MISS %:       -nan   MPKI: 0
STLB WRITEBACK ACCESS:          0  HIT:          0  MISS:          0  HIT %:       -nan  MISS %:       -nan   MPKI: 0
L1D TOTAL     ACCESS:   18202744  HIT:   10572274  MISS:    7630470  HIT %:    58.0807  MISS %:    41.9193   MPKI: 152.609
L1D LOAD      ACCESS:   15444234  HIT:    7967970  MISS:    7476264  HIT %:    51.5919  MISS %:    48.4081   MPKI: 149.525
L1D RFO       ACCESS:    2758510  HIT:    2604304  MISS:     154206  HIT %:    94.4098  MISS %:    5.59019   MPKI: 3.08412
L1D PREFETCH  ACCESS:          0  HIT:          0  MISS:          0  HIT %:       -nan  MISS %:       -nan   MPKI: 0
L1D WRITEBACK ACCESS:          0  HIT:          0  MISS:          0  HIT %:       -nan  MISS %:       -nan   MPKI: 0
L1I TOTAL     ACCESS:   13170968  HIT:   13170968  MISS:          0  HIT %:        100  MISS %:          0   MPKI: 0
L1I LOAD      ACCESS:   13170968  HIT:   13170968  MISS:          0  HIT %:        100  MISS %:          0   MPKI: 0
L1I RFO       ACCESS:          0  HIT:          0  MISS:          0  HIT %:       -nan  MISS %:       -nan   MPKI: 0
L1I PREFETCH  ACCESS:          0  HIT:          0  MISS:          0  HIT %:       -nan  MISS %:       -nan   MPKI: 0
L1I WRITEBACK ACCESS:          0  HIT:          0  MISS:          0  HIT %:       -nan  MISS %:       -nan   MPKI: 0
L2C TOTAL     ACCESS:    7826849  HIT:     195788  MISS:    7631061  HIT %:    2.50149  MISS %:    97.4985   MPKI: 152.621
L2C LOAD      ACCESS:    7476263  HIT:        647  MISS:    7475616  HIT %: 0.00865406  MISS %:    99.9913   MPKI: 149.512
L2C RFO       ACCESS:     154206  HIT:        102  MISS:     154104  HIT %:  0.0661453  MISS %:    99.9339   MPKI: 3.08208
L2C PREFETCH  ACCESS:          0  HIT:          0  MISS:          0  HIT %:       -nan  MISS %:       -nan   MPKI: 0
L2C WRITEBACK ACCESS:     191898  HIT:     191650  MISS:        248  HIT %:    99.8708  MISS %:   0.129235   MPKI: 0.00496
PSCL5 TOTAL     ACCESS:       4478  HIT:       4478  MISS:          0  HIT %:        100  MISS %:          0   MPKI: 0
PSCL5 LOAD      ACCESS:          0  HIT:          0  MISS:          0  HIT %:       -nan  MISS %:       -nan   MPKI: 0
PSCL5 RFO       ACCESS:          0  HIT:          0  MISS:          0  HIT %:       -nan  MISS %:       -nan   MPKI: 0
PSCL5 PREFETCH  ACCESS:          0  HIT:          0  MISS:          0  HIT %:       -nan  MISS %:       -nan   MPKI: 0
PSCL5 WRITEBACK ACCESS:          0  HIT:          0  MISS:          0  HIT %:       -nan  MISS %:       -nan   MPKI: 0
PSCL4 TOTAL     ACCESS:       4478  HIT:       4478  MISS:          0  HIT %:        100  MISS %:          0   MPKI: 0
PSCL4 LOAD      ACCESS:          0  HIT:          0  MISS:          0  HIT %:       -nan  MISS %:       -nan   MPKI: 0
PSCL4 RFO       ACCESS:          0  HIT:          0  MISS:          0  HIT %:       -nan  MISS %:       -nan   MPKI: 0
PSCL4 PREFETCH  ACCESS:          0  HIT:          0  MISS:          0  HIT %:       -nan  MISS %:       -nan   MPKI: 0
PSCL4 WRITEBACK ACCESS:          0  HIT:          0  MISS:          0  HIT %:       -nan  MISS %:       -nan   MPKI: 0
PSCL3 TOTAL     ACCESS:       4478  HIT:       4478  MISS:          0  HIT %:        100  MISS %:          0   MPKI: 0
PSCL3 LOAD      ACCESS:          0  HIT:          0  MISS:          0  HIT %:       -nan  MISS %:       -nan   MPKI: 0
PSCL3 RFO       ACCESS:          0  HIT:          0  MISS:          0  HIT %:       -nan  MISS %:       -nan   MPKI: 0
PSCL3 PREFETCH  ACCESS:          0  HIT:          0  MISS:          0  HIT %:       -nan  MISS %:       -nan   MPKI: 0
PSCL3 WRITEBACK ACCESS:          0  HIT:          0  MISS:          0  HIT %:       -nan  MISS %:       -nan   MPKI: 0
PSCL2 TOTAL     ACCESS:       4478  HIT:       4465  MISS:         13  HIT %:    99.7097  MISS %:   0.290308   MPKI: 0.00026
PSCL2 LOAD      ACCESS:          0  HIT:          0  MISS:          0  HIT %:       -nan  MISS %:       -nan   MPKI: 0
PSCL2 RFO       ACCESS:          0  HIT:          0  MISS:          0  HIT %:       -nan  MISS %:       -nan   MPKI: 0
PSCL2 PREFETCH  ACCESS:          0  HIT:          0  MISS:          0  HIT %:       -nan  MISS %:       -nan   MPKI: 0
PSCL2 WRITEBACK ACCESS:          0  HIT:          0  MISS:          0  HIT %:       -nan  MISS %:       -nan   MPKI: 0
LLC TOTAL     ACCESS:    7822837  HIT:    1894992  MISS:    5927845  HIT %:    24.2238  MISS %:    75.7762   MPKI: 118.557
LLC LOAD      ACCESS:    7475616  HIT:    1702762  MISS:    5772854  HIT %:    22.7775  MISS %:    77.2225   MPKI: 115.457
LLC RFO       ACCESS:     154104  HIT:        245  MISS:     153859  HIT %:   0.158984  MISS %:     99.841   MPKI: 3.07718
LLC PREFETCH  ACCESS:          0  HIT:          0  MISS:          0  HIT %:       -nan  MISS %:       -nan   MPKI: 0
LLC WRITEBACK ACCESS:     192024  HIT:     191871  MISS:        153  HIT %:    99.9203  MISS %:  0.0796775   MPKI: 0.00306

RAW hits: 2012577
Loads Generated: 22575659
Loads sent to L1D: 20563083
Stores Generated: 3711164
Stores sent to L1D: 3711168

CPU 1 cumulative IPC: 0.404326 instructions: 143093210 cycles: 353905373
ITLB TOTAL     ACCESS:   22765706  HIT:   22691933  MISS:      73773  HIT %:    99.6759  MISS %:   0.324053   MPKI: 0.515559
ITLB LOAD      ACCESS:          0  HIT:          0  MISS:          0  HIT %:       -nan  MISS %:       -nan   MPKI: 0
ITLB RFO       ACCESS:          0  HIT:          0  MISS:          0  HIT %:       -nan  MISS %:       -nan   MPKI: 0
ITLB PREFETCH  ACCESS:          0  HIT:          0  MISS:          0  HIT %:       -nan  MISS %:       -nan   MPKI: 0
ITLB WRITEBACK ACCESS:          0  HIT:          0  MISS:          0  HIT %:       -nan  MISS %:       -nan   MPKI: 0
DTLB TOTAL     ACCESS:   41307275  HIT:   40809967  MISS:     497308  HIT %:    98.7961  MISS %:    1.20392   MPKI: 3.47541
DTLB LOAD      ACCESS:          0  HIT:          0  MISS:          0  HIT %:       -nan  MISS %:       -nan   MPKI: 0
DTLB RFO       ACCESS:          0  HIT:          0  MISS:          0  HIT %:       -nan  MISS %:       -nan   MPKI: 0
DTLB PREFETCH  ACCESS:          0  HIT:          0  MISS:          0  HIT %:       -nan  MISS %:       -nan   MPKI: 0
DTLB WRITEBACK ACCESS:          0  HIT:          0  MISS:          0  HIT %:       -nan  MISS %:       -nan   MPKI: 0
STLB TOTAL     ACCESS:     571081  HIT:     548531  MISS:      22550  HIT %:    96.0513  MISS %:    3.94865   MPKI: 0.15759
STLB LOAD      ACCESS:          0  HIT:          0  MISS:          0  HIT %:       -nan  MISS %:       -nan   MPKI: 0
STLB RFO       ACCESS:          0  HIT:          0  MISS:          0  HIT %:       -nan  MISS %:       -nan   MPKI: 0
STLB PREFETCH  ACCESS:          0  HIT:          0  MISS:          0  HIT %:       -nan  MISS %:       -nan   MPKI: 0
STLB WRITEBACK ACCESS:          0  HIT:          0  MISS:          0  HIT %:       -nan  MISS %:       -nan   MPKI: 0
L1D TOTAL     ACCESS:   54340030  HIT:   53782825  MISS:     557205  HIT %:    98.9746  MISS %:     1.0254   MPKI: 3.894
L1D LOAD      ACCESS:   27328150  HIT:   26818511  MISS:     509639  HIT %:    98.1351  MISS %:    1.86489   MPKI: 3.56159
L1D RFO       ACCESS:   27011880  HIT:   26964314  MISS:      47566  HIT %:    99.8239  MISS %:   0.176093   MPKI: 0.332413
L1D PREFETCH  ACCESS:          0  HIT:          0  MISS:          0  HIT %:       -nan  MISS %:       -nan   MPKI: 0
L1D WRITEBACK ACCESS:          0  HIT:          0  MISS:          0  HIT %:       -nan  MISS %:       -nan   MPKI: 0
L1I TOTAL     ACCESS:   25511822  HIT:   24647262  MISS:     864560  HIT %:    96.6111  MISS %:    3.38886   MPKI: 6.04194
L1I LOAD      ACCESS:   25511822  HIT:   24647262  MISS:     864560  HIT %:    96.6111  MISS %:    3.38886   MPKI: 6.04194
L1I RFO       ACCESS:          0  HIT:          0  MISS:          0  HIT %:       -nan  MISS %:       -nan   MPKI: 0
L1I PREFETCH  ACCESS:          0  HIT:          0  MISS:          0  HIT %:       -nan  MISS %:       -nan   MPKI: 0
L1I WRITEBACK ACCESS:          0  HIT:          0  MISS:          0  HIT %:       -nan  MISS %:       -nan   MPKI: 0
L2C TOTAL     ACCESS:    1597812  HIT:    1319837  MISS:     277975  HIT %:    82.6028  MISS %:    17.3972   MPKI: 1.94261
L2C LOAD      ACCESS:    1374198  HIT:    1121876  MISS:     252322  HIT %:    81.6386  MISS %:    18.3614   MPKI: 1.76334
L2C RFO       ACCESS:      47566  HIT:      33257  MISS:      14309  HIT %:    69.9176  MISS %:    30.0824   MPKI: 0.0999978
L2C PREFETCH  ACCESS:          0  HIT:          0  MISS:          0  HIT %:       -nan  MISS %:       -nan   MPKI: 0
L2C WRITEBACK ACCESS:     149192  HIT:     148601  MISS:        591  HIT %:    99.6039  MISS %:   0.396134   MPKI: 0.00413018
PSCL5 TOTAL     ACCESS:      22550  HIT:      22550  MISS:          0  HIT %:        100  MISS %:          0   MPKI: 0
PSCL5 LOAD      ACCESS:          0  HIT:          0  MISS:          0  HIT %:       -nan  MISS %:       -nan   MPKI: 0
PSCL5 RFO       ACCESS:          0  HIT:          0  MISS:          0  HIT %:       -nan  MISS %:       -nan   MPKI: 0
PSCL5 PREFETCH  ACCESS:          0  HIT:          0  MISS:          0  HIT %:       -nan  MISS %:       -nan   MPKI: 0
PSCL5 WRITEBACK ACCESS:          0  HIT:          0  MISS:          0  HIT %:       -nan  MISS %:       -nan   MPKI: 0
PSCL4 TOTAL     ACCESS:      22550  HIT:      22550  MISS:          0  HIT %:        100  MISS %:          0   MPKI: 0
PSCL4 LOAD      ACCESS:          0  HIT:          0  MISS:          0  HIT %:       -nan  MISS %:       -nan   MPKI: 0
PSCL4 RFO       ACCESS:          0  HIT:          0  MISS:          0  HIT %:       -nan  MISS %:       -nan   MPKI: 0
PSCL4 PREFETCH  ACCESS:          0  HIT:          0  MISS:          0  HIT %:       -nan  MISS %:       -nan   MPKI: 0
PSCL4 WRITEBACK ACCESS:          0  HIT:          0  MISS:          0  HIT %:       -nan  MISS %:       -nan   MPKI: 0
PSCL3 TOTAL     ACCESS:      22550  HIT:      22550  MISS:          0  HIT %:        100  MISS %:          0   MPKI: 0
PSCL3 LOAD      ACCESS:          0  HIT:          0  MISS:          0  HIT %:       -nan  MISS %:       -nan   MPKI: 0
PSCL3 RFO       ACCESS:          0  HIT:          0  MISS:          0  HIT %:       -nan  MISS %:       -nan   MPKI: 0
PSCL3 PREFETCH  ACCESS:          0  HIT:          0  MISS:          0  HIT %:       -nan  MISS %:       -nan   MPKI: 0
PSCL3 WRITEBACK ACCESS:          0  HIT:          0  MISS:          0  HIT %:       -nan  MISS %:       -nan   MPKI: 0
PSCL2 TOTAL     ACCESS:      22550  HIT:      18191  MISS:       4359  HIT %:    80.6696  MISS %:    19.3304   MPKI: 0.0304627
PSCL2 LOAD      ACCESS:          0  HIT:          0  MISS:          0  HIT %:       -nan  MISS %:       -nan   MPKI: 0
PSCL2 RFO       ACCESS:          0  HIT:          0  MISS:          0  HIT %:       -nan  MISS %:       -nan   MPKI: 0
PSCL2 PREFETCH  ACCESS:          0  HIT:          0  MISS:          0  HIT %:       -nan  MISS %:       -nan   MPKI: 0
PSCL2 WRITEBACK ACCESS:          0  HIT:          0  MISS:          0  HIT %:       -nan  MISS %:       -nan   MPKI: 0
LLC TOTAL     ACCESS:     330857  HIT:     121584  MISS:     209273  HIT %:    36.7482  MISS %:    63.2518   MPKI: 1.46249
LLC LOAD      ACCESS:     252323  HIT:      58287  MISS:     194036  HIT %:    23.1002  MISS %:    76.8998   MPKI: 1.35601
LLC RFO       ACCESS:      14309  HIT:       4236  MISS:      10073  HIT %:    29.6037  MISS %:    70.3963   MPKI: 0.0703947
LLC PREFETCH  ACCESS:          0  HIT:          0  MISS:          0  HIT %:       -nan  MISS %:       -nan   MPKI: 0
LLC WRITEBACK ACCESS:      53472  HIT:      52900  MISS:        572  HIT %:    98.9303  MISS %:    1.06972   MPKI: 0.00399739

RAW hits: 1908731
Loads Generated: 36176101
Loads sent to L1D: 34267370
Stores Generated: 27409469
Stores sent to L1D: 27409468

Region of Interest Statistics

CPU 0 cumulative IPC: 0.141281 instructions: 50000001 cycles: 353905372
ITLB TOTAL     ACCESS:   10935208  HIT:   10935208  MISS:          0  HIT %:        100  MISS %:          0   MPKI: 0
ITLB LOAD TRANSLATION ACCESS:   10935208  HIT:   10935208  MISS:          0  HIT %:        100  MISS %:          0   MPKI: 0
ITLB PREFETCH  REQUESTED:          0  ISSUED:          0  USEFUL:          0  USELESS:          0
ITLB USEFUL LOAD PREFETCHES:          0 PREFETCH ISSUED TO LOWER LEVEL:          0  ACCURACY: -nan
ITLB TIMELY PREFETCHES:          0 LATE PREFETCHES: 0 DROPPED PREFETCHES: 0
ITLB PREFETCHES SAME FILL-ORIGIN LEVEL: 0 DIFFERENT FILL-ORIGIN LEVEL: 0
ITLB AVERAGE MISS LATENCY: -nan cycles
ITLB RQ	ACCESS:   13170970	FORWARD:          0	MERGED:    2235761	TO_CACHE:   10935209

DTLB TOTAL     ACCESS:   16039366  HIT:   15843896  MISS:     195470  HIT %:    98.7813  MISS %:    1.21869   MPKI: 3.9094
DTLB LOAD TRANSLATION ACCESS:   16039366  HIT:   15843896  MISS:     195470  HIT %:    98.7813  MISS %:    1.21869   MPKI: 3.9094
DTLB PREFETCH  REQUESTED:          0  ISSUED:          0  USEFUL:          0  USELESS:          0
DTLB USEFUL LOAD PREFETCHES:          0 PREFETCH ISSUED TO LOWER LEVEL:          0  ACCURACY: -nan
DTLB TIMELY PREFETCHES:          0 LATE PREFETCHES: 0 DROPPED PREFETCHES: 0
DTLB PREFETCHES SAME FILL-ORIGIN LEVEL: 0 DIFFERENT FILL-ORIGIN LEVEL: 0
DTLB AVERAGE MISS LATENCY: 12.9961 cycles
DTLB RQ	ACCESS:   19591595	FORWARD:          0	MERGED:    3549141	TO_CACHE:   16042454

STLB TOTAL     ACCESS:     195470  HIT:     190992  MISS:       4478  HIT %:    97.7091  MISS %:    2.29089   MPKI: 0.08956
STLB LOAD TRANSLATION ACCESS:     195470  HIT:     190992  MISS:       4478  HIT %:    97.7091  MISS %:    2.29089   MPKI: 0.08956
STLB PREFETCH  REQUESTED:          0  ISSUED:          0  USEFUL:          0  USELESS:          0
STLB USEFUL LOAD PREFETCHES:          0 PREFETCH ISSUED TO LOWER LEVEL:          0  ACCURACY: -nan
STLB TIMELY PREFETCHES:          0 LATE PREFETCHES: 0 DROPPED PREFETCHES: 0
STLB PREFETCHES SAME FILL-ORIGIN LEVEL: 0 DIFFERENT FILL-ORIGIN LEVEL: 0
STLB AVERAGE MISS LATENCY: 174.072 cycles
STLB RQ	ACCESS:     195470	FORWARD:          0	MERGED:          0	TO_CACHE:     195470

STLB Hit, L1D data hit: 0
STLB Hit, L2C data hit: 0
STLB Hit, LLC data hit: 0
STLB Hit, LLC data miss: 0
STLB STLB hints to L2: 0
L1D TOTAL     ACCESS:   18202744  HIT:   10572274  MISS:    7630470  HIT %:    58.0807  MISS %:    41.9193   MPKI: 152.609
L1D LOAD      ACCESS:   15444234  HIT:    7967970  MISS:    7476264  HIT %:    51.5919  MISS %:    48.4081   MPKI: 149.525
L1D RFO       ACCESS:    2758510  HIT:    2604304  MISS:     154206  HIT %:    94.4098  MISS %:    5.59019   MPKI: 3.08412
L1D PREFETCH  REQUESTED:          0  ISSUED:          0  USEFUL:          0  USELESS:          0
L1D USEFUL LOAD PREFETCHES:          0 PREFETCH ISSUED TO LOWER LEVEL:          0  ACCURACY: -nan
L1D TIMELY PREFETCHES:          0 LATE PREFETCHES: 0 DROPPED PREFETCHES: 0
L1D PREFETCHES SAME FILL-ORIGIN LEVEL: 0 DIFFERENT FILL-ORIGIN LEVEL: 0
L1D AVERAGE MISS LATENCY: 137.436 cycles
L1D RQ	ACCESS:   20563083	FORWARD:          0	MERGED:    4038081	TO_CACHE:   16496241
L1D WQ	ACCESS:    3711168	FORWARD:      28761	MERGED:     615814	TO_CACHE:    3095354

L1D UNIQUE REGIONS ACCESSED: 0
L1D REGIONS CONFLICTS: 0
L1D Cross Page Prefetch Requests: 0
L1D Same Page Prefetch Requests: 0
L1D ROI Sum of L1D PQ occupancy: 0
L1D PREFETCHES PUSHED FROM L2C: 0
L1I TOTAL     ACCESS:   13170968  HIT:   13170968  MISS:          0  HIT %:        100  MISS %:          0   MPKI: 0
L1I LOAD      ACCESS:   13170968  HIT:   13170968  MISS:          0  HIT %:        100  MISS %:          0   MPKI: 0
L1I PREFETCH  REQUESTED:          0  ISSUED:          0  USEFUL:          0  USELESS:          0
L1I USEFUL LOAD PREFETCHES:          0 PREFETCH ISSUED TO LOWER LEVEL:          0  ACCURACY: -nan
L1I TIMELY PREFETCHES:          0 LATE PREFETCHES: 0 DROPPED PREFETCHES: 0
L1I PREFETCHES SAME FILL-ORIGIN LEVEL: 0 DIFFERENT FILL-ORIGIN LEVEL: 0
L1I AVERAGE MISS LATENCY: -nan cycles
L1I RQ	ACCESS:   18651243	FORWARD:          0	MERGED:    5480273	TO_CACHE:   13170970

BTB TOTAL     ACCESS:    8795726  HIT:    8795694  MISS:         32  HIT %:    99.9996  MISS %: 0.000363813   MPKI: 0.00064
BTB BRANCH_DIRECT_JUMP	ACCESS:    2039125  HIT:    2039119  MISS:          6
BTB BRANCH_INDIRECT	ACCESS:          0  HIT:          0  MISS:          0
BTB BRANCH_CONDITIONAL	ACCESS:    6755817  HIT:    6755795  MISS:         22
BTB BRANCH_DIRECT_CALL	ACCESS:        392  HIT:        390  MISS:          2
BTB BRANCH_INDIRECT_CALL	ACCESS:          0  HIT:          0  MISS:          0
BTB BRANCH_RETURN	ACCESS:        392  HIT:        390  MISS:          2
BTB BRANCH_OTHER ACCESS:          0  HIT:          0  MISS:          0

L2C TOTAL     ACCESS:    7826849  HIT:     195788  MISS:    7631061  HIT %:    2.50149  MISS %:    97.4985   MPKI: 152.621
L2C LOAD      ACCESS:    7476263  HIT:        647  MISS:    7475616  HIT %: 0.00865406  MISS %:    99.9913   MPKI: 149.512
L2C DATA LOAD MPKI: 149.512
L2C INSTRUCTION LOAD MPKI: 0
L2C RFO       ACCESS:     154206  HIT:        102  MISS:     154104  HIT %:  0.0661453  MISS %:    99.9339   MPKI: 3.08208
L2C WRITEBACK ACCESS:     191898  HIT:     191650  MISS:        248  HIT %:    99.8708  MISS %:   0.129235   MPKI: 0.00496
L2C LOAD TRANSLATION ACCESS:       4482  HIT:       3389  MISS:       1093  HIT %:    75.6136  MISS %:    24.3864   MPKI: 0.02186
L2C PREFETCH  REQUESTED:          0  ISSUED:          0  USEFUL:          0  USELESS:          0
L2C USEFUL LOAD PREFETCHES:          0 PREFETCH ISSUED TO LOWER LEVEL:          0  ACCURACY: -nan
L2C TIMELY PREFETCHES:          0 LATE PREFETCHES: 0 DROPPED PREFETCHES: 0
L2C PREFETCHES SAME FILL-ORIGIN LEVEL: 0 DIFFERENT FILL-ORIGIN LEVEL: 0
L2C AVERAGE MISS LATENCY: 122.328 cycles
L2C RQ	ACCESS:    7634952	FORWARD:          0	MERGED:          0	TO_CACHE:    7634952
L2C WQ	ACCESS:     191898	FORWARD:          0	MERGED:          0	TO_CACHE:     191898

L2C Instructions Evicting Data 0
L2C Translations Evicting Data 1093
L2C Data Evicting Data 7628623
L2C Instructions Evicting Instructions 0
L2C Translations Evicting Instructions 0
L2C Data Evicting Instructions 0
L2C Instructions Evicting Translations 0
L2C Translations Evicting Translations 0
L2C Data Evicting Translations 1097
L2C Dense regions hint from L2: 0
PSCL5 TOTAL     ACCESS:       4478  HIT:       4478  MISS:          0  HIT %:        100  MISS %:          0   MPKI: 0
PSCL5 LOAD TRANSLATION ACCESS:       4478  HIT:       4478  MISS:          0  HIT %:        100  MISS %:          0   MPKI: 0
PSCL5 PREFETCH  REQUESTED:          0  ISSUED:          0  USEFUL:          0  USELESS:          0
PSCL5 USEFUL LOAD PREFETCHES:          0 PREFETCH ISSUED TO LOWER LEVEL:          0  ACCURACY: -nan
PSCL5 TIMELY PREFETCHES:          0 LATE PREFETCHES: 0 DROPPED PREFETCHES: 0
PSCL5 PREFETCHES SAME FILL-ORIGIN LEVEL: 0 DIFFERENT FILL-ORIGIN LEVEL: 0

PSCL4 TOTAL     ACCESS:       4478  HIT:       4478  MISS:          0  HIT %:        100  MISS %:          0   MPKI: 0
PSCL4 LOAD TRANSLATION ACCESS:       4478  HIT:       4478  MISS:          0  HIT %:        100  MISS %:          0   MPKI: 0
PSCL4 PREFETCH  REQUESTED:          0  ISSUED:          0  USEFUL:          0  USELESS:          0
PSCL4 USEFUL LOAD PREFETCHES:          0 PREFETCH ISSUED TO LOWER LEVEL:          0  ACCURACY: -nan
PSCL4 TIMELY PREFETCHES:          0 LATE PREFETCHES: 0 DROPPED PREFETCHES: 0
PSCL4 PREFETCHES SAME FILL-ORIGIN LEVEL: 0 DIFFERENT FILL-ORIGIN LEVEL: 0

PSCL3 TOTAL     ACCESS:       4478  HIT:       4478  MISS:          0  HIT %:        100  MISS %:          0   MPKI: 0
PSCL3 LOAD TRANSLATION ACCESS:       4478  HIT:       4478  MISS:          0  HIT %:        100  MISS %:          0   MPKI: 0
PSCL3 PREFETCH  REQUESTED:          0  ISSUED:          0  USEFUL:          0  USELESS:          0
PSCL3 USEFUL LOAD PREFETCHES:          0 PREFETCH ISSUED TO LOWER LEVEL:          0  ACCURACY: -nan
PSCL3 TIMELY PREFETCHES:          0 LATE PREFETCHES: 0 DROPPED PREFETCHES: 0
PSCL3 PREFETCHES SAME FILL-ORIGIN LEVEL: 0 DIFFERENT FILL-ORIGIN LEVEL: 0

PSCL2 TOTAL     ACCESS:       4478  HIT:       4465  MISS:         13  HIT %:    99.7097  MISS %:   0.290308   MPKI: 0.00026
PSCL2 LOAD TRANSLATION ACCESS:       4478  HIT:       4465  MISS:         13  HIT %:    99.7097  MISS %:   0.290308   MPKI: 0.00026
PSCL2 PREFETCH  REQUESTED:          0  ISSUED:          0  USEFUL:          0  USELESS:          0
PSCL2 USEFUL LOAD PREFETCHES:          0 PREFETCH ISSUED TO LOWER LEVEL:          0  ACCURACY: -nan
PSCL2 TIMELY PREFETCHES:          0 LATE PREFETCHES: 0 DROPPED PREFETCHES: 0
PSCL2 PREFETCHES SAME FILL-ORIGIN LEVEL: 0 DIFFERENT FILL-ORIGIN LEVEL: 0

LLC TOTAL     ACCESS:    7822837  HIT:    1894992  MISS:    5927845  HIT %:    24.2238  MISS %:    75.7762   MPKI: 118.557
LLC LOAD      ACCESS:    7475616  HIT:    1702762  MISS:    5772854  HIT %:    22.7775  MISS %:    77.2225   MPKI: 115.457
LLC RFO       ACCESS:     154104  HIT:        245  MISS:     153859  HIT %:   0.158984  MISS %:     99.841   MPKI: 3.07718
LLC WRITEBACK ACCESS:     192024  HIT:     191871  MISS:        153  HIT %:    99.9203  MISS %:  0.0796775   MPKI: 0.00306
LLC LOAD TRANSLATION ACCESS:       1093  HIT:        114  MISS:        979  HIT %:      10.43  MISS %:      89.57   MPKI: 0.01958
LLC PREFETCH  REQUESTED:          0  ISSUED:          0  USEFUL:          0  USELESS:          0
LLC USEFUL LOAD PREFETCHES:          0 PREFETCH ISSUED TO LOWER LEVEL:          0  ACCURACY: -nan
LLC TIMELY PREFETCHES:          0 LATE PREFETCHES: 0 DROPPED PREFETCHES: 0
LLC PREFETCHES SAME FILL-ORIGIN LEVEL: 0 DIFFERENT FILL-ORIGIN LEVEL: 0
LLC AVERAGE MISS LATENCY: 125.32 cycles
LLC RQ	ACCESS:    7908199	FORWARD:          0	MERGED:          0	TO_CACHE:    7908199
LLC WQ	ACCESS:     245496	FORWARD:          0	MERGED:          0	TO_CACHE:     245496

LLC Dense regions hint to LLC: 0

RAW hits: 2012577
Loads Generated: 22575659
Loads sent to L1D: 20563083
Stores Generated: 3711164
Stores sent to L1D: 3711168
Major fault: 0 Minor fault: 9879
Allocated PAGES: 15800

CPU 1 cumulative IPC: 0.430302 instructions: 50000002 cycles: 116197505
ITLB TOTAL     ACCESS:    7822893  HIT:    7799787  MISS:      23106  HIT %:    99.7046  MISS %:   0.295364   MPKI: 0.46212
ITLB LOAD TRANSLATION ACCESS:    7822893  HIT:    7799787  MISS:      23106  HIT %:    99.7046  MISS %:   0.295364   MPKI: 0.46212
ITLB PREFETCH  REQUESTED:          0  ISSUED:          0  USEFUL:          0  USELESS:          0
ITLB USEFUL LOAD PREFETCHES:          0 PREFETCH ISSUED TO LOWER LEVEL:          0  ACCURACY: -nan
ITLB TIMELY PREFETCHES:          0 LATE PREFETCHES: 0 DROPPED PREFETCHES: 0
ITLB PREFETCHES SAME FILL-ORIGIN LEVEL: 0 DIFFERENT FILL-ORIGIN LEVEL: 0
ITLB AVERAGE MISS LATENCY: 31.5365 cycles
ITLB RQ	ACCESS:   25710140	FORWARD:          0	MERGED:    2918622	TO_CACHE:   22791518

DTLB TOTAL     ACCESS:   14118989  HIT:   13972532  MISS:     146457  HIT %:    98.9627  MISS %:    1.03731   MPKI: 2.92914
DTLB LOAD TRANSLATION ACCESS:   14118989  HIT:   13972532  MISS:     146457  HIT %:    98.9627  MISS %:    1.03731   MPKI: 2.92914
DTLB PREFETCH  REQUESTED:          0  ISSUED:          0  USEFUL:          0  USELESS:          0
DTLB USEFUL LOAD PREFETCHES:          0 PREFETCH ISSUED TO LOWER LEVEL:          0  ACCURACY: -nan
DTLB TIMELY PREFETCHES:          0 LATE PREFETCHES: 0 DROPPED PREFETCHES: 0
DTLB PREFETCHES SAME FILL-ORIGIN LEVEL: 0 DIFFERENT FILL-ORIGIN LEVEL: 0
DTLB AVERAGE MISS LATENCY: 45.0206 cycles
DTLB RQ	ACCESS:   54460903	FORWARD:          0	MERGED:   13139910	TO_CACHE:   41320993

STLB TOTAL     ACCESS:     169563  HIT:     162289  MISS:       7274  HIT %:    95.7101  MISS %:    4.28985   MPKI: 0.14548
STLB LOAD TRANSLATION ACCESS:     169563  HIT:     162289  MISS:       7274  HIT %:    95.7101  MISS %:    4.28985   MPKI: 0.14548
STLB PREFETCH  REQUESTED:          0  ISSUED:          0  USEFUL:          0  USELESS:          0
STLB USEFUL LOAD PREFETCHES:          0 PREFETCH ISSUED TO LOWER LEVEL:          0  ACCURACY: -nan
STLB TIMELY PREFETCHES:          0 LATE PREFETCHES: 0 DROPPED PREFETCHES: 0
STLB PREFETCHES SAME FILL-ORIGIN LEVEL: 0 DIFFERENT FILL-ORIGIN LEVEL: 0
STLB AVERAGE MISS LATENCY: 298.015 cycles
STLB RQ	ACCESS:     571081	FORWARD:          0	MERGED:          0	TO_CACHE:     571081

STLB Hit, L1D data hit: 0
STLB Hit, L2C data hit: 0
STLB Hit, LLC data hit: 0
STLB Hit, LLC data miss: 0
STLB STLB hints to L2: 0
L1D TOTAL     ACCESS:   19069842  HIT:   18904161  MISS:     165681  HIT %:    99.1312  MISS %:   0.868812   MPKI: 3.31362
L1D LOAD      ACCESS:    9365489  HIT:    9217536  MISS:     147953  HIT %:    98.4202  MISS %:    1.57977   MPKI: 2.95906
L1D RFO       ACCESS:    9704353  HIT:    9686625  MISS:      17728  HIT %:    99.8173  MISS %:   0.182681   MPKI: 0.35456
L1D PREFETCH  REQUESTED:          0  ISSUED:          0  USEFUL:          0  USELESS:          0
L1D USEFUL LOAD PREFETCHES:          0 PREFETCH ISSUED TO LOWER LEVEL:          0  ACCURACY: -nan
L1D TIMELY PREFETCHES:          0 LATE PREFETCHES: 0 DROPPED PREFETCHES: 0
L1D PREFETCHES SAME FILL-ORIGIN LEVEL: 0 DIFFERENT FILL-ORIGIN LEVEL: 0
L1D AVERAGE MISS LATENCY: 305.981 cycles
L1D RQ	ACCESS:   34267370	FORWARD:          0	MERGED:    6170461	TO_CACHE:   27368208
L1D WQ	ACCESS:   27409468	FORWARD:     728701	MERGED:     316773	TO_CACHE:   27092695

L1D UNIQUE REGIONS ACCESSED: 0
L1D REGIONS CONFLICTS: 0
L1D Cross Page Prefetch Requests: 0
L1D Same Page Prefetch Requests: 0
L1D ROI Sum of L1D PQ occupancy: 0
L1D PREFETCHES PUSHED FROM L2C: 0
L1I TOTAL     ACCESS:    8761556  HIT:    8501992  MISS:     259564  HIT %:    97.0375  MISS %:    2.96253   MPKI: 5.19128
L1I LOAD      ACCESS:    8761556  HIT:    8501992  MISS:     259564  HIT %:    97.0375  MISS %:    2.96253   MPKI: 5.19128
L1I PREFETCH  REQUESTED:          0  ISSUED:          0  USEFUL:          0  USELESS:          0
L1I USEFUL LOAD PREFETCHES:          0 PREFETCH ISSUED TO LOWER LEVEL:          0  ACCURACY: -nan
L1I TIMELY PREFETCHES:          0 LATE PREFETCHES: 0 DROPPED PREFETCHES: 0
L1I PREFETCHES SAME FILL-ORIGIN LEVEL: 0 DIFFERENT FILL-ORIGIN LEVEL: 0
L1I AVERAGE MISS LATENCY: 59.461 cycles
L1I RQ	ACCESS:   40525532	FORWARD:          0	MERGED:   14815392	TO_CACHE:   25710140

BTB TOTAL     ACCESS:    6575637  HIT:    6174907  MISS:     400730  HIT %:    93.9058  MISS %:    6.09416   MPKI: 8.0146
BTB BRANCH_DIRECT_JUMP	ACCESS:    1053783  HIT:    1050399  MISS:       3384
BTB BRANCH_INDIRECT	ACCESS:     320542  HIT:      98389  MISS:     222153
BTB BRANCH_CONDITIONAL	ACCESS:    4232515  HIT:    4223065  MISS:       9450
BTB BRANCH_DIRECT_CALL	ACCESS:     378606  HIT:     376149  MISS:       2457
BTB BRANCH_INDIRECT_CALL	ACCESS:     105793  HIT:      11599  MISS:      94194
BTB BRANCH_RETURN	ACCESS:     484398  HIT:     415306  MISS:      69092
BTB BRANCH_OTHER ACCESS:          0  HIT:          0  MISS:          0

L2C TOTAL     ACCESS:     482635  HIT:     397805  MISS:      84830  HIT %:    82.4236  MISS %:    17.5764   MPKI: 1.6966
L2C LOAD      ACCESS:     407517  HIT:     331185  MISS:      76332  HIT %:     81.269  MISS %:     18.731   MPKI: 1.52664
L2C DATA LOAD MPKI: 1.32222
L2C INSTRUCTION LOAD MPKI: 0.20442
L2C RFO       ACCESS:      17728  HIT:      12805  MISS:       4923  HIT %:    72.2304  MISS %:    27.7696   MPKI: 0.09846
L2C WRITEBACK ACCESS:      48709  HIT:      48545  MISS:        164  HIT %:    99.6633  MISS %:   0.336693   MPKI: 0.00328
L2C LOAD TRANSLATION ACCESS:       8681  HIT:       5270  MISS:       3411  HIT %:    60.7073  MISS %:    39.2927   MPKI: 0.06822
L2C PREFETCH  REQUESTED:          0  ISSUED:          0  USEFUL:          0  USELESS:          0
L2C USEFUL LOAD PREFETCHES:          0 PREFETCH ISSUED TO LOWER LEVEL:          0  ACCURACY: -nan
L2C TIMELY PREFETCHES:          0 LATE PREFETCHES: 0 DROPPED PREFETCHES: 0
L2C PREFETCHES SAME FILL-ORIGIN LEVEL: 0 DIFFERENT FILL-ORIGIN LEVEL: 0
L2C AVERAGE MISS LATENCY: 551.602 cycles
L2C RQ	ACCESS:    1448622	FORWARD:          0	MERGED:          0	TO_CACHE:    1448621
L2C WQ	ACCESS:     149192	FORWARD:          1	MERGED:          0	TO_CACHE:     149192

L2C Instructions Evicting Data 26690
L2C Translations Evicting Data 9055
L2C Data Evicting Data 197254
L2C Instructions Evicting Instructions 4231
L2C Translations Evicting Instructions 1218
L2C Data Evicting Instructions 26306
L2C Instructions Evicting Translations 1273
L2C Translations Evicting Translations 353
L2C Data Evicting Translations 9098
L2C Dense regions hint from L2: 0
PSCL5 TOTAL     ACCESS:       7274  HIT:       7274  MISS:          0  HIT %:        100  MISS %:          0   MPKI: 0
PSCL5 LOAD TRANSLATION ACCESS:       7274  HIT:       7274  MISS:          0  HIT %:        100  MISS %:          0   MPKI: 0
PSCL5 PREFETCH  REQUESTED:          0  ISSUED:          0  USEFUL:          0  USELESS:          0
PSCL5 USEFUL LOAD PREFETCHES:          0 PREFETCH ISSUED TO LOWER LEVEL:          0  ACCURACY: -nan
PSCL5 TIMELY PREFETCHES:          0 LATE PREFETCHES: 0 DROPPED PREFETCHES: 0
PSCL5 PREFETCHES SAME FILL-ORIGIN LEVEL: 0 DIFFERENT FILL-ORIGIN LEVEL: 0

PSCL4 TOTAL     ACCESS:       7274  HIT:       7274  MISS:          0  HIT %:        100  MISS %:          0   MPKI: 0
PSCL4 LOAD TRANSLATION ACCESS:       7274  HIT:       7274  MISS:          0  HIT %:        100  MISS %:          0   MPKI: 0
PSCL4 PREFETCH  REQUESTED:          0  ISSUED:          0  USEFUL:          0  USELESS:          0
PSCL4 USEFUL LOAD PREFETCHES:          0 PREFETCH ISSUED TO LOWER LEVEL:          0  ACCURACY: -nan
PSCL4 TIMELY PREFETCHES:          0 LATE PREFETCHES: 0 DROPPED PREFETCHES: 0
PSCL4 PREFETCHES SAME FILL-ORIGIN LEVEL: 0 DIFFERENT FILL-ORIGIN LEVEL: 0

PSCL3 TOTAL     ACCESS:       7274  HIT:       7274  MISS:          0  HIT %:        100  MISS %:          0   MPKI: 0
PSCL3 LOAD TRANSLATION ACCESS:       7274  HIT:       7274  MISS:          0  HIT %:        100  MISS %:          0   MPKI: 0
PSCL3 PREFETCH  REQUESTED:          0  ISSUED:          0  USEFUL:          0  USELESS:          0
PSCL3 USEFUL LOAD PREFETCHES:          0 PREFETCH ISSUED TO LOWER LEVEL:          0  ACCURACY: -nan
PSCL3 TIMELY PREFETCHES:          0 LATE PREFETCHES: 0 DROPPED PREFETCHES: 0
PSCL3 PREFETCHES SAME FILL-ORIGIN LEVEL: 0 DIFFERENT FILL-ORIGIN LEVEL: 0

PSCL2 TOTAL     ACCESS:       7274  HIT:       5815  MISS:       1459  HIT %:    79.9423  MISS %:    20.0577   MPKI: 0.02918
PSCL2 LOAD TRANSLATION ACCESS:       7274  HIT:       5815  MISS:       1459  HIT %:    79.9423  MISS %:    20.0577   MPKI: 0.02918
PSCL2 PREFETCH  REQUESTED:          0  ISSUED:          0  USEFUL:          0  USELESS:          0
PSCL2 USEFUL LOAD PREFETCHES:          0 PREFETCH ISSUED TO LOWER LEVEL:          0  ACCURACY: -nan
PSCL2 TIMELY PREFETCHES:          0 LATE PREFETCHES: 0 DROPPED PREFETCHES: 0
PSCL2 PREFETCHES SAME FILL-ORIGIN LEVEL: 0 DIFFERENT FILL-ORIGIN LEVEL: 0

LLC TOTAL     ACCESS:     101764  HIT:      36691  MISS:      65073  HIT %:     36.055  MISS %:     63.945   MPKI: 1.30146
LLC LOAD      ACCESS:      76332  HIT:      16747  MISS:      59585  HIT %:    21.9397  MISS %:    78.0603   MPKI: 1.1917
LLC RFO       ACCESS:       4923  HIT:       1185  MISS:       3738  HIT %:    24.0707  MISS %:    75.9293   MPKI: 0.07476
LLC WRITEBACK ACCESS:      17098  HIT:      16929  MISS:        169  HIT %:    99.0116  MISS %:    0.98842   MPKI: 0.00338
LLC LOAD TRANSLATION ACCESS:       3411  HIT:       1830  MISS:       1581  HIT %:      53.65  MISS %:      46.35   MPKI: 0.03162
LLC PREFETCH  REQUESTED:          0  ISSUED:          0  USEFUL:          0  USELESS:          0
LLC USEFUL LOAD PREFETCHES:          0 PREFETCH ISSUED TO LOWER LEVEL:          0  ACCURACY: -nan
LLC TIMELY PREFETCHES:          0 LATE PREFETCHES: 0 DROPPED PREFETCHES: 0
LLC PREFETCHES SAME FILL-ORIGIN LEVEL: 0 DIFFERENT FILL-ORIGIN LEVEL: 0
LLC AVERAGE MISS LATENCY: 11416.1 cycles
LLC RQ	ACCESS:    7908199	FORWARD:          0	MERGED:          0	TO_CACHE:    7908199
LLC WQ	ACCESS:     245496	FORWARD:          0	MERGED:          0	TO_CACHE:     245496

LLC Dense regions hint to LLC: 0

RAW hits: 695215
Loads Generated: 12545830
Loads sent to L1D: 11850613
Stores Generated: 9845786
Stores sent to L1D: 9845784
Major fault: 0 Minor fault: 5921
Allocated PAGES: 15800

CPU 0 Self-eviction count: 5927845
CPU 1 Self-eviction count: 183427

DRAM Statistics
 CHANNEL 0
 RQ ROW_BUFFER_HIT:    3748786  ROW_BUFFER_MISS:    2387601
 DBUS_CONGESTED:      15044
 WQ ROW_BUFFER_HIT:     160120  ROW_BUFFER_MISS:      65583  FULL:          0

 AVG_CONGESTED_CYCLE: 4
 All warmup complete: 3
Channel 0 Bank busy for read cycles: 0
Channel 0 Bank busy for write cycles: 0
Channel 0
Rank 0
0banks busy for read cycles: 52974615
0banks busy for write cycles: 30225
1banks busy for read cycles: 108181317
1banks busy for write cycles: 10286995
2banks busy for read cycles: 86356071
2banks busy for write cycles: 4344876
3banks busy for read cycles: 49798798
3banks busy for write cycles: 2614042
4banks busy for read cycles: 20268519
4banks busy for write cycles: 1943131
5banks busy for read cycles: 5485606
5banks busy for write cycles: 1609203
6banks busy for read cycles: 999236
6banks busy for write cycles: 1526986
7banks busy for read cycles: 117226
7banks busy for write cycles: 2065030
8banks busy for read cycles: 12956
8banks busy for write cycles: 5290541

CPU 0 Branch Prediction Accuracy: 97.6795% MPKI: 4.20592 Average ROB Occupancy at Mispredict: 52.4443
Branch types
NOT_BRANCH: 40937282 81.8746%
BRANCH_DIRECT_JUMP: 2039125 4.07825%
BRANCH_INDIRECT: 0 0%
BRANCH_CONDITIONAL: 7022758 14.0455%
BRANCH_DIRECT_CALL: 392 0.000784%
BRANCH_INDIRECT_CALL: 0 0%
BRANCH_RETURN: 392 0.000784%
BRANCH_OTHER: 0 0%


CPU 1 Branch Prediction Accuracy: 95.8531% MPKI: 6.66134 Average ROB Occupancy at Mispredict: 26.9967
Branch types
NOT_BRANCH: 118374983 82.7258%
BRANCH_DIRECT_JUMP: 2990688 2.09003%
BRANCH_INDIRECT: 859543 0.600687%
BRANCH_CONDITIONAL: 17832612 12.4622%
BRANCH_DIRECT_CALL: 1172881 0.819662%
BRANCH_INDIRECT_CALL: 344801 0.240963%
BRANCH_RETURN: 1517684 1.06063%
BRANCH_OTHER: 0 0%

DRAM PAGES: 1048576
Allocated PAGES: 15800
