
*** ChampSim Multicore Out-of-Order Simulator ***

Warmup Instructions: 50000000
Simulation Instructions: 50000000
Number of CPUs: 2
LLC sets: 4096
LLC ways: 16
Off-chip DRAM Size: 4096 MB Channels: 1 Width: 64-bit Data Rate: 6400 MT/s
CPU 0 runs ../Given/traces//605.mcf_s-1554B.champsimtrace.xz
.xz
CPU 1 runs ../Given/traces//605.mcf_s-1554B.champsimtrace.xz
.xz
CPU 0 Bimodal branch predictor
BTB has LRU replacement policy
ITLB has LRU replacement policy
DTLB has LRU replacement policy
STLB has LRU replacement policy
L1I has LRU replacement policy
L1D has LRU replacement policy
L2C has LRU replacement policy
LLC has LRU replacement policy
CPU 1 Bimodal branch predictor
BTB has LRU replacement policy
ITLB has LRU replacement policy
DTLB has LRU replacement policy
STLB has LRU replacement policy
L1I has LRU replacement policy
L1D has LRU replacement policy
L2C has LRU replacement policy
LLC has LRU replacement policy
Heartbeat CPU 0 instructions: 10000001 cycles: 3610608 heartbeat IPC: 2.76962 cumulative IPC: 2.76962 (Simulation time: 0 hr 0 min 32 sec) 
Heartbeat CPU 1 instructions: 10000001 cycles: 3637026 heartbeat IPC: 2.7495 cumulative IPC: 2.7495 (Simulation time: 0 hr 0 min 33 sec) 
Heartbeat CPU 0 instructions: 20000001 cycles: 7241971 heartbeat IPC: 2.75379 cumulative IPC: 2.76168 (Simulation time: 0 hr 1 min 6 sec) 
Heartbeat CPU 1 instructions: 20000000 cycles: 7294800 heartbeat IPC: 2.7339 cumulative IPC: 2.74168 (Simulation time: 0 hr 1 min 7 sec) 
Heartbeat CPU 0 instructions: 30000000 cycles: 10882888 heartbeat IPC: 2.74656 cumulative IPC: 2.75662 (Simulation time: 0 hr 1 min 45 sec) 
Heartbeat CPU 1 instructions: 30000002 cycles: 10963191 heartbeat IPC: 2.72599 cumulative IPC: 2.73643 (Simulation time: 0 hr 1 min 46 sec) 
Heartbeat CPU 0 instructions: 40000001 cycles: 14512949 heartbeat IPC: 2.75477 cumulative IPC: 2.75616 (Simulation time: 0 hr 2 min 24 sec) 
Heartbeat CPU 1 instructions: 40000001 cycles: 14621063 heartbeat IPC: 2.73383 cumulative IPC: 2.73578 (Simulation time: 0 hr 2 min 26 sec) 
Heartbeat CPU 0 instructions: 50000000 cycles: 18147142 heartbeat IPC: 2.75164 cumulative IPC: 2.75525 (Simulation time: 0 hr 3 min 3 sec) 
Heartbeat CPU 1 instructions: 50000000 cycles: 18281299 heartbeat IPC: 2.73206 cumulative IPC: 2.73504 (Simulation time: 0 hr 3 min 4 sec) 

Warmup complete CPU 0 instructions: 50340467 cycles: 18281300 (Simulation time: 0 hr 3 min 4 sec) 
Warmup complete CPU 1 instructions: 50000004 cycles: 18281300 (Simulation time: 0 hr 3 min 4 sec) 

Heartbeat CPU 0 instructions: 60000001 cycles: 104763091 heartbeat IPC: 0.115452 cumulative IPC: 0.111694 (Simulation time: 0 hr 4 min 49 sec) 
Heartbeat CPU 1 instructions: 60000002 cycles: 108320779 heartbeat IPC: 0.111062 cumulative IPC: 0.111062 (Simulation time: 0 hr 4 min 54 sec) 
Heartbeat CPU 0 instructions: 70000000 cycles: 194711751 heartbeat IPC: 0.111175 cumulative IPC: 0.111429 (Simulation time: 0 hr 6 min 31 sec) 
Heartbeat CPU 1 instructions: 70000001 cycles: 198726080 heartbeat IPC: 0.110613 cumulative IPC: 0.110837 (Simulation time: 0 hr 6 min 34 sec) 
Heartbeat CPU 0 instructions: 80000000 cycles: 286378418 heartbeat IPC: 0.109091 cumulative IPC: 0.11063 (Simulation time: 0 hr 8 min 3 sec) 
Heartbeat CPU 1 instructions: 80000000 cycles: 290872283 heartbeat IPC: 0.108523 cumulative IPC: 0.110055 (Simulation time: 0 hr 8 min 7 sec) 
Heartbeat CPU 0 instructions: 90000002 cycles: 375766636 heartbeat IPC: 0.111872 cumulative IPC: 0.11094 (Simulation time: 0 hr 9 min 37 sec) 
Heartbeat CPU 1 instructions: 90000002 cycles: 380906500 heartbeat IPC: 0.111069 cumulative IPC: 0.110307 (Simulation time: 0 hr 9 min 42 sec) 
Heartbeat CPU 0 instructions: 100000000 cycles: 464412052 heartbeat IPC: 0.112809 cumulative IPC: 0.111312 (Simulation time: 0 hr 11 min 16 sec) 
Finished CPU 0 instructions: 50000002 cycles: 448936730 cumulative IPC: 0.111374 (Simulation time: 0 hr 11 min 19 sec) 
Heartbeat CPU 1 instructions: 100000000 cycles: 470144017 heartbeat IPC: 0.11206 cumulative IPC: 0.110653 (Simulation time: 0 hr 11 min 22 sec) 
Finished CPU 1 instructions: 50000000 cycles: 451862718 cumulative IPC: 0.110653 (Simulation time: 0 hr 11 min 22 sec) 

ChampSim completed all CPUs

Total Simulation Statistics (not including warmup)

CPU 0 cumulative IPC: 0.111372 instructions: 50325038 cycles: 451862718
ITLB TOTAL     ACCESS:   11094109  HIT:   11094109  MISS:          0  HIT %:        100  MISS %:          0   MPKI: 0
ITLB LOAD      ACCESS:          0  HIT:          0  MISS:          0  HIT %:       -nan  MISS %:       -nan   MPKI: 0
ITLB RFO       ACCESS:          0  HIT:          0  MISS:          0  HIT %:       -nan  MISS %:       -nan   MPKI: 0
ITLB PREFETCH  ACCESS:          0  HIT:          0  MISS:          0  HIT %:       -nan  MISS %:       -nan   MPKI: 0
ITLB WRITEBACK ACCESS:          0  HIT:          0  MISS:          0  HIT %:       -nan  MISS %:       -nan   MPKI: 0
DTLB TOTAL     ACCESS:   16186435  HIT:   15989990  MISS:     196445  HIT %:    98.7864  MISS %:    1.21364   MPKI: 3.90352
DTLB LOAD      ACCESS:          0  HIT:          0  MISS:          0  HIT %:       -nan  MISS %:       -nan   MPKI: 0
DTLB RFO       ACCESS:          0  HIT:          0  MISS:          0  HIT %:       -nan  MISS %:       -nan   MPKI: 0
DTLB PREFETCH  ACCESS:          0  HIT:          0  MISS:          0  HIT %:       -nan  MISS %:       -nan   MPKI: 0
DTLB WRITEBACK ACCESS:          0  HIT:          0  MISS:          0  HIT %:       -nan  MISS %:       -nan   MPKI: 0
STLB TOTAL     ACCESS:     196445  HIT:     191895  MISS:       4550  HIT %:    97.6838  MISS %:    2.31617   MPKI: 0.0904123
STLB LOAD      ACCESS:          0  HIT:          0  MISS:          0  HIT %:       -nan  MISS %:       -nan   MPKI: 0
STLB RFO       ACCESS:          0  HIT:          0  MISS:          0  HIT %:       -nan  MISS %:       -nan   MPKI: 0
STLB PREFETCH  ACCESS:          0  HIT:          0  MISS:          0  HIT %:       -nan  MISS %:       -nan   MPKI: 0
STLB WRITEBACK ACCESS:          0  HIT:          0  MISS:          0  HIT %:       -nan  MISS %:       -nan   MPKI: 0
L1D TOTAL     ACCESS:   18389580  HIT:   10726432  MISS:    7663148  HIT %:    58.3289  MISS %:    41.6711   MPKI: 152.273
L1D LOAD      ACCESS:   15608795  HIT:    8101836  MISS:    7506959  HIT %:    51.9056  MISS %:    48.0944   MPKI: 149.169
L1D RFO       ACCESS:    2780785  HIT:    2624596  MISS:     156189  HIT %:    94.3833  MISS %:    5.61672   MPKI: 3.1036
L1D PREFETCH  ACCESS:          0  HIT:          0  MISS:          0  HIT %:       -nan  MISS %:       -nan   MPKI: 0
L1D WRITEBACK ACCESS:          0  HIT:          0  MISS:          0  HIT %:       -nan  MISS %:       -nan   MPKI: 0
L1I TOTAL     ACCESS:   13343572  HIT:   13343572  MISS:          0  HIT %:        100  MISS %:          0   MPKI: 0
L1I LOAD      ACCESS:   13343572  HIT:   13343572  MISS:          0  HIT %:        100  MISS %:          0   MPKI: 0
L1I RFO       ACCESS:          0  HIT:          0  MISS:          0  HIT %:       -nan  MISS %:       -nan   MPKI: 0
L1I PREFETCH  ACCESS:          0  HIT:          0  MISS:          0  HIT %:       -nan  MISS %:       -nan   MPKI: 0
L1I WRITEBACK ACCESS:          0  HIT:          0  MISS:          0  HIT %:       -nan  MISS %:       -nan   MPKI: 0
L2C TOTAL     ACCESS:    7863310  HIT:     199601  MISS:    7663709  HIT %:    2.53838  MISS %:    97.4616   MPKI: 152.284
L2C LOAD      ACCESS:    7506959  HIT:        697  MISS:    7506262  HIT %: 0.00928472  MISS %:    99.9907   MPKI: 149.156
L2C RFO       ACCESS:     156189  HIT:        103  MISS:     156086  HIT %:  0.0659457  MISS %:    99.9341   MPKI: 3.10156
L2C PREFETCH  ACCESS:          0  HIT:          0  MISS:          0  HIT %:       -nan  MISS %:       -nan   MPKI: 0
L2C WRITEBACK ACCESS:     195608  HIT:     195361  MISS:        247  HIT %:    99.8737  MISS %:   0.126273   MPKI: 0.00490809
PSCL5 TOTAL     ACCESS:       4550  HIT:       4550  MISS:          0  HIT %:        100  MISS %:          0   MPKI: 0
PSCL5 LOAD      ACCESS:          0  HIT:          0  MISS:          0  HIT %:       -nan  MISS %:       -nan   MPKI: 0
PSCL5 RFO       ACCESS:          0  HIT:          0  MISS:          0  HIT %:       -nan  MISS %:       -nan   MPKI: 0
PSCL5 PREFETCH  ACCESS:          0  HIT:          0  MISS:          0  HIT %:       -nan  MISS %:       -nan   MPKI: 0
PSCL5 WRITEBACK ACCESS:          0  HIT:          0  MISS:          0  HIT %:       -nan  MISS %:       -nan   MPKI: 0
PSCL4 TOTAL     ACCESS:       4550  HIT:       4550  MISS:          0  HIT %:        100  MISS %:          0   MPKI: 0
PSCL4 LOAD      ACCESS:          0  HIT:          0  MISS:          0  HIT %:       -nan  MISS %:       -nan   MPKI: 0
PSCL4 RFO       ACCESS:          0  HIT:          0  MISS:          0  HIT %:       -nan  MISS %:       -nan   MPKI: 0
PSCL4 PREFETCH  ACCESS:          0  HIT:          0  MISS:          0  HIT %:       -nan  MISS %:       -nan   MPKI: 0
PSCL4 WRITEBACK ACCESS:          0  HIT:          0  MISS:          0  HIT %:       -nan  MISS %:       -nan   MPKI: 0
PSCL3 TOTAL     ACCESS:       4550  HIT:       4550  MISS:          0  HIT %:        100  MISS %:          0   MPKI: 0
PSCL3 LOAD      ACCESS:          0  HIT:          0  MISS:          0  HIT %:       -nan  MISS %:       -nan   MPKI: 0
PSCL3 RFO       ACCESS:          0  HIT:          0  MISS:          0  HIT %:       -nan  MISS %:       -nan   MPKI: 0
PSCL3 PREFETCH  ACCESS:          0  HIT:          0  MISS:          0  HIT %:       -nan  MISS %:       -nan   MPKI: 0
PSCL3 WRITEBACK ACCESS:          0  HIT:          0  MISS:          0  HIT %:       -nan  MISS %:       -nan   MPKI: 0
PSCL2 TOTAL     ACCESS:       4550  HIT:       4537  MISS:         13  HIT %:    99.7143  MISS %:   0.285714   MPKI: 0.000258321
PSCL2 LOAD      ACCESS:          0  HIT:          0  MISS:          0  HIT %:       -nan  MISS %:       -nan   MPKI: 0
PSCL2 RFO       ACCESS:          0  HIT:          0  MISS:          0  HIT %:       -nan  MISS %:       -nan   MPKI: 0
PSCL2 PREFETCH  ACCESS:          0  HIT:          0  MISS:          0  HIT %:       -nan  MISS %:       -nan   MPKI: 0
PSCL2 WRITEBACK ACCESS:          0  HIT:          0  MISS:          0  HIT %:       -nan  MISS %:       -nan   MPKI: 0
LLC TOTAL     ACCESS:    7858595  HIT:    2156099  MISS:    5702496  HIT %:    27.4362  MISS %:    72.5638   MPKI: 113.313
LLC LOAD      ACCESS:    7506263  HIT:    1960928  MISS:    5545335  HIT %:    26.1239  MISS %:    73.8761   MPKI: 110.19
LLC RFO       ACCESS:     156086  HIT:         45  MISS:     156041  HIT %:  0.0288303  MISS %:    99.9712   MPKI: 3.10066
LLC PREFETCH  ACCESS:          0  HIT:          0  MISS:          0  HIT %:       -nan  MISS %:       -nan   MPKI: 0
LLC WRITEBACK ACCESS:     195132  HIT:     194982  MISS:        150  HIT %:    99.9231  MISS %:   0.076871   MPKI: 0.00298062

RAW hits: 2017907
Loads Generated: 22694027
Loads sent to L1D: 20676123
Stores Generated: 3769446
Stores sent to L1D: 3769442

CPU 1 cumulative IPC: 0.110653 instructions: 50000000 cycles: 451862718
ITLB TOTAL     ACCESS:   11044989  HIT:   11044989  MISS:          0  HIT %:        100  MISS %:          0   MPKI: 0
ITLB LOAD      ACCESS:          0  HIT:          0  MISS:          0  HIT %:       -nan  MISS %:       -nan   MPKI: 0
ITLB RFO       ACCESS:          0  HIT:          0  MISS:          0  HIT %:       -nan  MISS %:       -nan   MPKI: 0
ITLB PREFETCH  ACCESS:          0  HIT:          0  MISS:          0  HIT %:       -nan  MISS %:       -nan   MPKI: 0
ITLB WRITEBACK ACCESS:          0  HIT:          0  MISS:          0  HIT %:       -nan  MISS %:       -nan   MPKI: 0
DTLB TOTAL     ACCESS:   16111278  HIT:   15915810  MISS:     195468  HIT %:    98.7868  MISS %:    1.21324   MPKI: 3.90936
DTLB LOAD      ACCESS:          0  HIT:          0  MISS:          0  HIT %:       -nan  MISS %:       -nan   MPKI: 0
DTLB RFO       ACCESS:          0  HIT:          0  MISS:          0  HIT %:       -nan  MISS %:       -nan   MPKI: 0
DTLB PREFETCH  ACCESS:          0  HIT:          0  MISS:          0  HIT %:       -nan  MISS %:       -nan   MPKI: 0
DTLB WRITEBACK ACCESS:          0  HIT:          0  MISS:          0  HIT %:       -nan  MISS %:       -nan   MPKI: 0
STLB TOTAL     ACCESS:     195468  HIT:     190989  MISS:       4479  HIT %:    97.7086  MISS %:    2.29142   MPKI: 0.08958
STLB LOAD      ACCESS:          0  HIT:          0  MISS:          0  HIT %:       -nan  MISS %:       -nan   MPKI: 0
STLB RFO       ACCESS:          0  HIT:          0  MISS:          0  HIT %:       -nan  MISS %:       -nan   MPKI: 0
STLB PREFETCH  ACCESS:          0  HIT:          0  MISS:          0  HIT %:       -nan  MISS %:       -nan   MPKI: 0
STLB WRITEBACK ACCESS:          0  HIT:          0  MISS:          0  HIT %:       -nan  MISS %:       -nan   MPKI: 0
L1D TOTAL     ACCESS:   18267541  HIT:   10637071  MISS:    7630470  HIT %:    58.2294  MISS %:    41.7706   MPKI: 152.609
L1D LOAD      ACCESS:   15528552  HIT:    8052288  MISS:    7476264  HIT %:    51.8547  MISS %:    48.1453   MPKI: 149.525
L1D RFO       ACCESS:    2738989  HIT:    2584783  MISS:     154206  HIT %:      94.37  MISS %:    5.63003   MPKI: 3.08412
L1D PREFETCH  ACCESS:          0  HIT:          0  MISS:          0  HIT %:       -nan  MISS %:       -nan   MPKI: 0
L1D WRITEBACK ACCESS:          0  HIT:          0  MISS:          0  HIT %:       -nan  MISS %:       -nan   MPKI: 0
L1I TOTAL     ACCESS:   13281421  HIT:   13281421  MISS:          0  HIT %:        100  MISS %:          0   MPKI: 0
L1I LOAD      ACCESS:   13281421  HIT:   13281421  MISS:          0  HIT %:        100  MISS %:          0   MPKI: 0
L1I RFO       ACCESS:          0  HIT:          0  MISS:          0  HIT %:       -nan  MISS %:       -nan   MPKI: 0
L1I PREFETCH  ACCESS:          0  HIT:          0  MISS:          0  HIT %:       -nan  MISS %:       -nan   MPKI: 0
L1I WRITEBACK ACCESS:          0  HIT:          0  MISS:          0  HIT %:       -nan  MISS %:       -nan   MPKI: 0
L2C TOTAL     ACCESS:    7826850  HIT:     195770  MISS:    7631080  HIT %:    2.50126  MISS %:    97.4987   MPKI: 152.622
L2C LOAD      ACCESS:    7476263  HIT:        648  MISS:    7475615  HIT %: 0.00866743  MISS %:    99.9913   MPKI: 149.512
L2C RFO       ACCESS:     154206  HIT:        102  MISS:     154104  HIT %:  0.0661453  MISS %:    99.9339   MPKI: 3.08208
L2C PREFETCH  ACCESS:          0  HIT:          0  MISS:          0  HIT %:       -nan  MISS %:       -nan   MPKI: 0
L2C WRITEBACK ACCESS:     191898  HIT:     191650  MISS:        248  HIT %:    99.8708  MISS %:   0.129235   MPKI: 0.00496
PSCL5 TOTAL     ACCESS:       4479  HIT:       4479  MISS:          0  HIT %:        100  MISS %:          0   MPKI: 0
PSCL5 LOAD      ACCESS:          0  HIT:          0  MISS:          0  HIT %:       -nan  MISS %:       -nan   MPKI: 0
PSCL5 RFO       ACCESS:          0  HIT:          0  MISS:          0  HIT %:       -nan  MISS %:       -nan   MPKI: 0
PSCL5 PREFETCH  ACCESS:          0  HIT:          0  MISS:          0  HIT %:       -nan  MISS %:       -nan   MPKI: 0
PSCL5 WRITEBACK ACCESS:          0  HIT:          0  MISS:          0  HIT %:       -nan  MISS %:       -nan   MPKI: 0
PSCL4 TOTAL     ACCESS:       4479  HIT:       4479  MISS:          0  HIT %:        100  MISS %:          0   MPKI: 0
PSCL4 LOAD      ACCESS:          0  HIT:          0  MISS:          0  HIT %:       -nan  MISS %:       -nan   MPKI: 0
PSCL4 RFO       ACCESS:          0  HIT:          0  MISS:          0  HIT %:       -nan  MISS %:       -nan   MPKI: 0
PSCL4 PREFETCH  ACCESS:          0  HIT:          0  MISS:          0  HIT %:       -nan  MISS %:       -nan   MPKI: 0
PSCL4 WRITEBACK ACCESS:          0  HIT:          0  MISS:          0  HIT %:       -nan  MISS %:       -nan   MPKI: 0
PSCL3 TOTAL     ACCESS:       4479  HIT:       4479  MISS:          0  HIT %:        100  MISS %:          0   MPKI: 0
PSCL3 LOAD      ACCESS:          0  HIT:          0  MISS:          0  HIT %:       -nan  MISS %:       -nan   MPKI: 0
PSCL3 RFO       ACCESS:          0  HIT:          0  MISS:          0  HIT %:       -nan  MISS %:       -nan   MPKI: 0
PSCL3 PREFETCH  ACCESS:          0  HIT:          0  MISS:          0  HIT %:       -nan  MISS %:       -nan   MPKI: 0
PSCL3 WRITEBACK ACCESS:          0  HIT:          0  MISS:          0  HIT %:       -nan  MISS %:       -nan   MPKI: 0
PSCL2 TOTAL     ACCESS:       4479  HIT:       4466  MISS:         13  HIT %:    99.7098  MISS %:   0.290243   MPKI: 0.00026
PSCL2 LOAD      ACCESS:          0  HIT:          0  MISS:          0  HIT %:       -nan  MISS %:       -nan   MPKI: 0
PSCL2 RFO       ACCESS:          0  HIT:          0  MISS:          0  HIT %:       -nan  MISS %:       -nan   MPKI: 0
PSCL2 PREFETCH  ACCESS:          0  HIT:          0  MISS:          0  HIT %:       -nan  MISS %:       -nan   MPKI: 0
PSCL2 WRITEBACK ACCESS:          0  HIT:          0  MISS:          0  HIT %:       -nan  MISS %:       -nan   MPKI: 0
LLC TOTAL     ACCESS:    7822870  HIT:    2131414  MISS:    5691456  HIT %:    27.2459  MISS %:    72.7541   MPKI: 113.829
LLC LOAD      ACCESS:    7475615  HIT:    1938994  MISS:    5536621  HIT %:    25.9376  MISS %:    74.0624   MPKI: 110.732
LLC RFO       ACCESS:     154104  HIT:        354  MISS:     153750  HIT %:   0.229715  MISS %:    99.7703   MPKI: 3.075
LLC PREFETCH  ACCESS:          0  HIT:          0  MISS:          0  HIT %:       -nan  MISS %:       -nan   MPKI: 0
LLC WRITEBACK ACCESS:     192038  HIT:     191888  MISS:        150  HIT %:    99.9219  MISS %:  0.0781095   MPKI: 0.003

RAW hits: 2012590
Loads Generated: 22575657
Loads sent to L1D: 20563071
Stores Generated: 3711166
Stores sent to L1D: 3711168

Region of Interest Statistics

CPU 0 cumulative IPC: 0.111374 instructions: 50000002 cycles: 448936730
ITLB TOTAL     ACCESS:   11035998  HIT:   11035998  MISS:          0  HIT %:        100  MISS %:          0   MPKI: 0
ITLB LOAD TRANSLATION ACCESS:   11035998  HIT:   11035998  MISS:          0  HIT %:        100  MISS %:          0   MPKI: 0
ITLB PREFETCH  REQUESTED:          0  ISSUED:          0  USEFUL:          0  USELESS:          0
ITLB USEFUL LOAD PREFETCHES:          0 PREFETCH ISSUED TO LOWER LEVEL:          0  ACCURACY: -nan
ITLB TIMELY PREFETCHES:          0 LATE PREFETCHES: 0 DROPPED PREFETCHES: 0
ITLB PREFETCHES SAME FILL-ORIGIN LEVEL: 0 DIFFERENT FILL-ORIGIN LEVEL: 0
ITLB AVERAGE MISS LATENCY: -nan cycles
ITLB RQ	ACCESS:   13343571	FORWARD:          0	MERGED:    2249463	TO_CACHE:   11094108

DTLB TOTAL     ACCESS:   16089914  HIT:   15894444  MISS:     195470  HIT %:    98.7851  MISS %:    1.21486   MPKI: 3.9094
DTLB LOAD TRANSLATION ACCESS:   16089914  HIT:   15894444  MISS:     195470  HIT %:    98.7851  MISS %:    1.21486   MPKI: 3.9094
DTLB PREFETCH  REQUESTED:          0  ISSUED:          0  USEFUL:          0  USELESS:          0
DTLB USEFUL LOAD PREFETCHES:          0 PREFETCH ISSUED TO LOWER LEVEL:          0  ACCURACY: -nan
DTLB TIMELY PREFETCHES:          0 LATE PREFETCHES: 0 DROPPED PREFETCHES: 0
DTLB PREFETCHES SAME FILL-ORIGIN LEVEL: 0 DIFFERENT FILL-ORIGIN LEVEL: 0
DTLB AVERAGE MISS LATENCY: 13.1858 cycles
DTLB RQ	ACCESS:   19735732	FORWARD:          0	MERGED:    3546972	TO_CACHE:   16188760

STLB TOTAL     ACCESS:     195470  HIT:     190989  MISS:       4481  HIT %:    97.7076  MISS %:    2.29242   MPKI: 0.08962
STLB LOAD TRANSLATION ACCESS:     195470  HIT:     190989  MISS:       4481  HIT %:    97.7076  MISS %:    2.29242   MPKI: 0.08962
STLB PREFETCH  REQUESTED:          0  ISSUED:          0  USEFUL:          0  USELESS:          0
STLB USEFUL LOAD PREFETCHES:          0 PREFETCH ISSUED TO LOWER LEVEL:          0  ACCURACY: -nan
STLB TIMELY PREFETCHES:          0 LATE PREFETCHES: 0 DROPPED PREFETCHES: 0
STLB PREFETCHES SAME FILL-ORIGIN LEVEL: 0 DIFFERENT FILL-ORIGIN LEVEL: 0
STLB AVERAGE MISS LATENCY: 180.251 cycles
STLB RQ	ACCESS:     196445	FORWARD:          0	MERGED:          0	TO_CACHE:     196445

STLB Hit, L1D data hit: 0
STLB Hit, L2C data hit: 0
STLB Hit, LLC data hit: 0
STLB Hit, LLC data miss: 0
STLB STLB hints to L2: 0
L1D TOTAL     ACCESS:   18260533  HIT:   10629418  MISS:    7631115  HIT %:    58.2098  MISS %:    41.7902   MPKI: 152.622
L1D LOAD      ACCESS:   15525890  HIT:    8048886  MISS:    7477004  HIT %:    51.8417  MISS %:    48.1583   MPKI: 149.54
L1D RFO       ACCESS:    2734643  HIT:    2580532  MISS:     154111  HIT %:    94.3645  MISS %:    5.63551   MPKI: 3.08222
L1D PREFETCH  REQUESTED:          0  ISSUED:          0  USEFUL:          0  USELESS:          0
L1D USEFUL LOAD PREFETCHES:          0 PREFETCH ISSUED TO LOWER LEVEL:          0  ACCURACY: -nan
L1D TIMELY PREFETCHES:          0 LATE PREFETCHES: 0 DROPPED PREFETCHES: 0
L1D PREFETCHES SAME FILL-ORIGIN LEVEL: 0 DIFFERENT FILL-ORIGIN LEVEL: 0
L1D AVERAGE MISS LATENCY: 178.208 cycles
L1D RQ	ACCESS:   20676123	FORWARD:          0	MERGED:    4036320	TO_CACHE:   16611298
L1D WQ	ACCESS:    3769442	FORWARD:      28505	MERGED:     645008	TO_CACHE:    3124434

L1D UNIQUE REGIONS ACCESSED: 0
L1D REGIONS CONFLICTS: 0
L1D Cross Page Prefetch Requests: 0
L1D Same Page Prefetch Requests: 0
L1D ROI Sum of L1D PQ occupancy: 0
L1D PREFETCHES PUSHED FROM L2C: 0
L1I TOTAL     ACCESS:   13272272  HIT:   13272272  MISS:          0  HIT %:        100  MISS %:          0   MPKI: 0
L1I LOAD      ACCESS:   13272272  HIT:   13272272  MISS:          0  HIT %:        100  MISS %:          0   MPKI: 0
L1I PREFETCH  REQUESTED:          0  ISSUED:          0  USEFUL:          0  USELESS:          0
L1I USEFUL LOAD PREFETCHES:          0 PREFETCH ISSUED TO LOWER LEVEL:          0  ACCURACY: -nan
L1I TIMELY PREFETCHES:          0 LATE PREFETCHES: 0 DROPPED PREFETCHES: 0
L1I PREFETCHES SAME FILL-ORIGIN LEVEL: 0 DIFFERENT FILL-ORIGIN LEVEL: 0
L1I AVERAGE MISS LATENCY: -nan cycles
L1I RQ	ACCESS:   18716671	FORWARD:          0	MERGED:    5373100	TO_CACHE:   13343571

BTB TOTAL     ACCESS:    8795380  HIT:    8795380  MISS:          0  HIT %:        100  MISS %:          0   MPKI: 0
BTB BRANCH_DIRECT_JUMP	ACCESS:    2038612  HIT:    2038612  MISS:          0
BTB BRANCH_INDIRECT	ACCESS:          0  HIT:          0  MISS:          0
BTB BRANCH_CONDITIONAL	ACCESS:    6755980  HIT:    6755980  MISS:          0
BTB BRANCH_DIRECT_CALL	ACCESS:        394  HIT:        394  MISS:          0
BTB BRANCH_INDIRECT_CALL	ACCESS:          0  HIT:          0  MISS:          0
BTB BRANCH_RETURN	ACCESS:        394  HIT:        394  MISS:          0
BTB BRANCH_OTHER ACCESS:          0  HIT:          0  MISS:          0

L2C TOTAL     ACCESS:    7827302  HIT:     195596  MISS:    7631706  HIT %:    2.49889  MISS %:    97.5011   MPKI: 152.634
L2C LOAD      ACCESS:    7477004  HIT:        651  MISS:    7476353  HIT %:  0.0087067  MISS %:    99.9913   MPKI: 149.527
L2C DATA LOAD MPKI: 149.527
L2C INSTRUCTION LOAD MPKI: 0
L2C RFO       ACCESS:     154111  HIT:        101  MISS:     154010  HIT %:  0.0655372  MISS %:    99.9345   MPKI: 3.0802
L2C WRITEBACK ACCESS:     191702  HIT:     191457  MISS:        245  HIT %:    99.8722  MISS %:   0.127803   MPKI: 0.0049
L2C LOAD TRANSLATION ACCESS:       4485  HIT:       3387  MISS:       1098  HIT %:    75.5184  MISS %:    24.4816   MPKI: 0.02196
L2C PREFETCH  REQUESTED:          0  ISSUED:          0  USEFUL:          0  USELESS:          0
L2C USEFUL LOAD PREFETCHES:          0 PREFETCH ISSUED TO LOWER LEVEL:          0  ACCURACY: -nan
L2C TIMELY PREFETCHES:          0 LATE PREFETCHES: 0 DROPPED PREFETCHES: 0
L2C PREFETCHES SAME FILL-ORIGIN LEVEL: 0 DIFFERENT FILL-ORIGIN LEVEL: 0
L2C AVERAGE MISS LATENCY: 163.036 cycles
L2C RQ	ACCESS:    7667705	FORWARD:          0	MERGED:          0	TO_CACHE:    7667705
L2C WQ	ACCESS:     195608	FORWARD:          0	MERGED:          0	TO_CACHE:     195608

L2C Instructions Evicting Data 0
L2C Translations Evicting Data 1114
L2C Data Evicting Data 7661235
L2C Instructions Evicting Instructions 0
L2C Translations Evicting Instructions 0
L2C Data Evicting Instructions 0
L2C Instructions Evicting Translations 0
L2C Translations Evicting Translations 0
L2C Data Evicting Translations 1113
L2C Dense regions hint from L2: 0
PSCL5 TOTAL     ACCESS:       4481  HIT:       4481  MISS:          0  HIT %:        100  MISS %:          0   MPKI: 0
PSCL5 LOAD TRANSLATION ACCESS:       4481  HIT:       4481  MISS:          0  HIT %:        100  MISS %:          0   MPKI: 0
PSCL5 PREFETCH  REQUESTED:          0  ISSUED:          0  USEFUL:          0  USELESS:          0
PSCL5 USEFUL LOAD PREFETCHES:          0 PREFETCH ISSUED TO LOWER LEVEL:          0  ACCURACY: -nan
PSCL5 TIMELY PREFETCHES:          0 LATE PREFETCHES: 0 DROPPED PREFETCHES: 0
PSCL5 PREFETCHES SAME FILL-ORIGIN LEVEL: 0 DIFFERENT FILL-ORIGIN LEVEL: 0

PSCL4 TOTAL     ACCESS:       4481  HIT:       4481  MISS:          0  HIT %:        100  MISS %:          0   MPKI: 0
PSCL4 LOAD TRANSLATION ACCESS:       4481  HIT:       4481  MISS:          0  HIT %:        100  MISS %:          0   MPKI: 0
PSCL4 PREFETCH  REQUESTED:          0  ISSUED:          0  USEFUL:          0  USELESS:          0
PSCL4 USEFUL LOAD PREFETCHES:          0 PREFETCH ISSUED TO LOWER LEVEL:          0  ACCURACY: -nan
PSCL4 TIMELY PREFETCHES:          0 LATE PREFETCHES: 0 DROPPED PREFETCHES: 0
PSCL4 PREFETCHES SAME FILL-ORIGIN LEVEL: 0 DIFFERENT FILL-ORIGIN LEVEL: 0

PSCL3 TOTAL     ACCESS:       4481  HIT:       4481  MISS:          0  HIT %:        100  MISS %:          0   MPKI: 0
PSCL3 LOAD TRANSLATION ACCESS:       4481  HIT:       4481  MISS:          0  HIT %:        100  MISS %:          0   MPKI: 0
PSCL3 PREFETCH  REQUESTED:          0  ISSUED:          0  USEFUL:          0  USELESS:          0
PSCL3 USEFUL LOAD PREFETCHES:          0 PREFETCH ISSUED TO LOWER LEVEL:          0  ACCURACY: -nan
PSCL3 TIMELY PREFETCHES:          0 LATE PREFETCHES: 0 DROPPED PREFETCHES: 0
PSCL3 PREFETCHES SAME FILL-ORIGIN LEVEL: 0 DIFFERENT FILL-ORIGIN LEVEL: 0

PSCL2 TOTAL     ACCESS:       4481  HIT:       4468  MISS:         13  HIT %:    99.7099  MISS %:   0.290114   MPKI: 0.00026
PSCL2 LOAD TRANSLATION ACCESS:       4481  HIT:       4468  MISS:         13  HIT %:    99.7099  MISS %:   0.290114   MPKI: 0.00026
PSCL2 PREFETCH  REQUESTED:          0  ISSUED:          0  USEFUL:          0  USELESS:          0
PSCL2 USEFUL LOAD PREFETCHES:          0 PREFETCH ISSUED TO LOWER LEVEL:          0  ACCURACY: -nan
PSCL2 TIMELY PREFETCHES:          0 LATE PREFETCHES: 0 DROPPED PREFETCHES: 0
PSCL2 PREFETCHES SAME FILL-ORIGIN LEVEL: 0 DIFFERENT FILL-ORIGIN LEVEL: 0

LLC TOTAL     ACCESS:    7822597  HIT:    2146217  MISS:    5676380  HIT %:    27.4361  MISS %:    72.5639   MPKI: 113.528
LLC LOAD      ACCESS:    7476353  HIT:    1955045  MISS:    5521308  HIT %:    26.1497  MISS %:    73.8503   MPKI: 110.426
LLC RFO       ACCESS:     154010  HIT:         45  MISS:     153965  HIT %:  0.0292189  MISS %:    99.9708   MPKI: 3.0793
LLC WRITEBACK ACCESS:     191136  HIT:     190986  MISS:        150  HIT %:    99.9215  MISS %:  0.0784782   MPKI: 0.003
LLC LOAD TRANSLATION ACCESS:       1098  HIT:        141  MISS:        957  HIT %:    12.8415  MISS %:    87.1585   MPKI: 0.01914
LLC PREFETCH  REQUESTED:          0  ISSUED:          0  USEFUL:          0  USELESS:          0
LLC USEFUL LOAD PREFETCHES:          0 PREFETCH ISSUED TO LOWER LEVEL:          0  ACCURACY: -nan
LLC TIMELY PREFETCHES:          0 LATE PREFETCHES: 0 DROPPED PREFETCHES: 0
LLC PREFETCHES SAME FILL-ORIGIN LEVEL: 0 DIFFERENT FILL-ORIGIN LEVEL: 0
LLC AVERAGE MISS LATENCY: 356.852 cycles
LLC RQ	ACCESS:   15294298	FORWARD:          0	MERGED:          0	TO_CACHE:   15294298
LLC WQ	ACCESS:     387170	FORWARD:          0	MERGED:          0	TO_CACHE:     387170

LLC Dense regions hint to LLC: 0

RAW hits: 2012009
Loads Generated: 22574941
Loads sent to L1D: 20562935
Stores Generated: 3711944
Stores sent to L1D: 3711935
Major fault: 0 Minor fault: 9945
Allocated PAGES: 19824

CPU 1 cumulative IPC: 0.110653 instructions: 50000000 cycles: 451862718
ITLB TOTAL     ACCESS:   11044989  HIT:   11044989  MISS:          0  HIT %:        100  MISS %:          0   MPKI: 0
ITLB LOAD TRANSLATION ACCESS:   11044989  HIT:   11044989  MISS:          0  HIT %:        100  MISS %:          0   MPKI: 0
ITLB PREFETCH  REQUESTED:          0  ISSUED:          0  USEFUL:          0  USELESS:          0
ITLB USEFUL LOAD PREFETCHES:          0 PREFETCH ISSUED TO LOWER LEVEL:          0  ACCURACY: -nan
ITLB TIMELY PREFETCHES:          0 LATE PREFETCHES: 0 DROPPED PREFETCHES: 0
ITLB PREFETCHES SAME FILL-ORIGIN LEVEL: 0 DIFFERENT FILL-ORIGIN LEVEL: 0
ITLB AVERAGE MISS LATENCY: -nan cycles
ITLB RQ	ACCESS:   13281423	FORWARD:          0	MERGED:    2236434	TO_CACHE:   11044989

DTLB TOTAL     ACCESS:   16111278  HIT:   15915810  MISS:     195468  HIT %:    98.7868  MISS %:    1.21324   MPKI: 3.90936
DTLB LOAD TRANSLATION ACCESS:   16111278  HIT:   15915810  MISS:     195468  HIT %:    98.7868  MISS %:    1.21324   MPKI: 3.90936
DTLB PREFETCH  REQUESTED:          0  ISSUED:          0  USEFUL:          0  USELESS:          0
DTLB USEFUL LOAD PREFETCHES:          0 PREFETCH ISSUED TO LOWER LEVEL:          0  ACCURACY: -nan
DTLB TIMELY PREFETCHES:          0 LATE PREFETCHES: 0 DROPPED PREFETCHES: 0
DTLB PREFETCHES SAME FILL-ORIGIN LEVEL: 0 DIFFERENT FILL-ORIGIN LEVEL: 0
DTLB AVERAGE MISS LATENCY: 13.0544 cycles
DTLB RQ	ACCESS:   19611301	FORWARD:          0	MERGED:    3497651	TO_CACHE:   16113650

STLB TOTAL     ACCESS:     195468  HIT:     190989  MISS:       4479  HIT %:    97.7086  MISS %:    2.29142   MPKI: 0.08958
STLB LOAD TRANSLATION ACCESS:     195468  HIT:     190989  MISS:       4479  HIT %:    97.7086  MISS %:    2.29142   MPKI: 0.08958
STLB PREFETCH  REQUESTED:          0  ISSUED:          0  USEFUL:          0  USELESS:          0
STLB USEFUL LOAD PREFETCHES:          0 PREFETCH ISSUED TO LOWER LEVEL:          0  ACCURACY: -nan
STLB TIMELY PREFETCHES:          0 LATE PREFETCHES: 0 DROPPED PREFETCHES: 0
STLB PREFETCHES SAME FILL-ORIGIN LEVEL: 0 DIFFERENT FILL-ORIGIN LEVEL: 0
STLB AVERAGE MISS LATENCY: 176.555 cycles
STLB RQ	ACCESS:     195468	FORWARD:          0	MERGED:          0	TO_CACHE:     195468

STLB Hit, L1D data hit: 0
STLB Hit, L2C data hit: 0
STLB Hit, LLC data hit: 0
STLB Hit, LLC data miss: 0
STLB STLB hints to L2: 0
L1D TOTAL     ACCESS:   18267541  HIT:   10637071  MISS:    7630470  HIT %:    58.2294  MISS %:    41.7706   MPKI: 152.609
L1D LOAD      ACCESS:   15528552  HIT:    8052288  MISS:    7476264  HIT %:    51.8547  MISS %:    48.1453   MPKI: 149.525
L1D RFO       ACCESS:    2738989  HIT:    2584783  MISS:     154206  HIT %:      94.37  MISS %:    5.63003   MPKI: 3.08412
L1D PREFETCH  REQUESTED:          0  ISSUED:          0  USEFUL:          0  USELESS:          0
L1D USEFUL LOAD PREFETCHES:          0 PREFETCH ISSUED TO LOWER LEVEL:          0  ACCURACY: -nan
L1D TIMELY PREFETCHES:          0 LATE PREFETCHES: 0 DROPPED PREFETCHES: 0
L1D PREFETCHES SAME FILL-ORIGIN LEVEL: 0 DIFFERENT FILL-ORIGIN LEVEL: 0
L1D AVERAGE MISS LATENCY: 177.661 cycles
L1D RQ	ACCESS:   20563071	FORWARD:          0	MERGED:    3999923	TO_CACHE:   16535559
L1D WQ	ACCESS:    3711168	FORWARD:      27589	MERGED:     635426	TO_CACHE:    3075742

L1D UNIQUE REGIONS ACCESSED: 0
L1D REGIONS CONFLICTS: 0
L1D Cross Page Prefetch Requests: 0
L1D Same Page Prefetch Requests: 0
L1D ROI Sum of L1D PQ occupancy: 0
L1D PREFETCHES PUSHED FROM L2C: 0
L1I TOTAL     ACCESS:   13281421  HIT:   13281421  MISS:          0  HIT %:        100  MISS %:          0   MPKI: 0
L1I LOAD      ACCESS:   13281421  HIT:   13281421  MISS:          0  HIT %:        100  MISS %:          0   MPKI: 0
L1I PREFETCH  REQUESTED:          0  ISSUED:          0  USEFUL:          0  USELESS:          0
L1I USEFUL LOAD PREFETCHES:          0 PREFETCH ISSUED TO LOWER LEVEL:          0  ACCURACY: -nan
L1I TIMELY PREFETCHES:          0 LATE PREFETCHES: 0 DROPPED PREFETCHES: 0
L1I PREFETCHES SAME FILL-ORIGIN LEVEL: 0 DIFFERENT FILL-ORIGIN LEVEL: 0
L1I AVERAGE MISS LATENCY: -nan cycles
L1I RQ	ACCESS:   18616092	FORWARD:          0	MERGED:    5334669	TO_CACHE:   13281423

BTB TOTAL     ACCESS:    8795734  HIT:    8795702  MISS:         32  HIT %:    99.9996  MISS %: 0.000363813   MPKI: 0.00064
BTB BRANCH_DIRECT_JUMP	ACCESS:    2039127  HIT:    2039121  MISS:          6
BTB BRANCH_INDIRECT	ACCESS:          0  HIT:          0  MISS:          0
BTB BRANCH_CONDITIONAL	ACCESS:    6755823  HIT:    6755801  MISS:         22
BTB BRANCH_DIRECT_CALL	ACCESS:        392  HIT:        390  MISS:          2
BTB BRANCH_INDIRECT_CALL	ACCESS:          0  HIT:          0  MISS:          0
BTB BRANCH_RETURN	ACCESS:        392  HIT:        390  MISS:          2
BTB BRANCH_OTHER ACCESS:          0  HIT:          0  MISS:          0

L2C TOTAL     ACCESS:    7826850  HIT:     195770  MISS:    7631080  HIT %:    2.50126  MISS %:    97.4987   MPKI: 152.622
L2C LOAD      ACCESS:    7476263  HIT:        648  MISS:    7475615  HIT %: 0.00866743  MISS %:    99.9913   MPKI: 149.512
L2C DATA LOAD MPKI: 149.512
L2C INSTRUCTION LOAD MPKI: 0
L2C RFO       ACCESS:     154206  HIT:        102  MISS:     154104  HIT %:  0.0661453  MISS %:    99.9339   MPKI: 3.08208
L2C WRITEBACK ACCESS:     191898  HIT:     191650  MISS:        248  HIT %:    99.8708  MISS %:   0.129235   MPKI: 0.00496
L2C LOAD TRANSLATION ACCESS:       4483  HIT:       3370  MISS:       1113  HIT %:    75.1729  MISS %:    24.8271   MPKI: 0.02226
L2C PREFETCH  REQUESTED:          0  ISSUED:          0  USEFUL:          0  USELESS:          0
L2C USEFUL LOAD PREFETCHES:          0 PREFETCH ISSUED TO LOWER LEVEL:          0  ACCURACY: -nan
L2C TIMELY PREFETCHES:          0 LATE PREFETCHES: 0 DROPPED PREFETCHES: 0
L2C PREFETCHES SAME FILL-ORIGIN LEVEL: 0 DIFFERENT FILL-ORIGIN LEVEL: 0
L2C AVERAGE MISS LATENCY: 162.551 cycles
L2C RQ	ACCESS:    7634953	FORWARD:          0	MERGED:          0	TO_CACHE:    7634953
L2C WQ	ACCESS:     191898	FORWARD:          0	MERGED:          0	TO_CACHE:     191898

L2C Instructions Evicting Data 0
L2C Translations Evicting Data 1113
L2C Data Evicting Data 7628602
L2C Instructions Evicting Instructions 0
L2C Translations Evicting Instructions 0
L2C Data Evicting Instructions 0
L2C Instructions Evicting Translations 0
L2C Translations Evicting Translations 0
L2C Data Evicting Translations 1117
L2C Dense regions hint from L2: 0
PSCL5 TOTAL     ACCESS:       4479  HIT:       4479  MISS:          0  HIT %:        100  MISS %:          0   MPKI: 0
PSCL5 LOAD TRANSLATION ACCESS:       4479  HIT:       4479  MISS:          0  HIT %:        100  MISS %:          0   MPKI: 0
PSCL5 PREFETCH  REQUESTED:          0  ISSUED:          0  USEFUL:          0  USELESS:          0
PSCL5 USEFUL LOAD PREFETCHES:          0 PREFETCH ISSUED TO LOWER LEVEL:          0  ACCURACY: -nan
PSCL5 TIMELY PREFETCHES:          0 LATE PREFETCHES: 0 DROPPED PREFETCHES: 0
PSCL5 PREFETCHES SAME FILL-ORIGIN LEVEL: 0 DIFFERENT FILL-ORIGIN LEVEL: 0

PSCL4 TOTAL     ACCESS:       4479  HIT:       4479  MISS:          0  HIT %:        100  MISS %:          0   MPKI: 0
PSCL4 LOAD TRANSLATION ACCESS:       4479  HIT:       4479  MISS:          0  HIT %:        100  MISS %:          0   MPKI: 0
PSCL4 PREFETCH  REQUESTED:          0  ISSUED:          0  USEFUL:          0  USELESS:          0
PSCL4 USEFUL LOAD PREFETCHES:          0 PREFETCH ISSUED TO LOWER LEVEL:          0  ACCURACY: -nan
PSCL4 TIMELY PREFETCHES:          0 LATE PREFETCHES: 0 DROPPED PREFETCHES: 0
PSCL4 PREFETCHES SAME FILL-ORIGIN LEVEL: 0 DIFFERENT FILL-ORIGIN LEVEL: 0

PSCL3 TOTAL     ACCESS:       4479  HIT:       4479  MISS:          0  HIT %:        100  MISS %:          0   MPKI: 0
PSCL3 LOAD TRANSLATION ACCESS:       4479  HIT:       4479  MISS:          0  HIT %:        100  MISS %:          0   MPKI: 0
PSCL3 PREFETCH  REQUESTED:          0  ISSUED:          0  USEFUL:          0  USELESS:          0
PSCL3 USEFUL LOAD PREFETCHES:          0 PREFETCH ISSUED TO LOWER LEVEL:          0  ACCURACY: -nan
PSCL3 TIMELY PREFETCHES:          0 LATE PREFETCHES: 0 DROPPED PREFETCHES: 0
PSCL3 PREFETCHES SAME FILL-ORIGIN LEVEL: 0 DIFFERENT FILL-ORIGIN LEVEL: 0

PSCL2 TOTAL     ACCESS:       4479  HIT:       4466  MISS:         13  HIT %:    99.7098  MISS %:   0.290243   MPKI: 0.00026
PSCL2 LOAD TRANSLATION ACCESS:       4479  HIT:       4466  MISS:         13  HIT %:    99.7098  MISS %:   0.290243   MPKI: 0.00026
PSCL2 PREFETCH  REQUESTED:          0  ISSUED:          0  USEFUL:          0  USELESS:          0
PSCL2 USEFUL LOAD PREFETCHES:          0 PREFETCH ISSUED TO LOWER LEVEL:          0  ACCURACY: -nan
PSCL2 TIMELY PREFETCHES:          0 LATE PREFETCHES: 0 DROPPED PREFETCHES: 0
PSCL2 PREFETCHES SAME FILL-ORIGIN LEVEL: 0 DIFFERENT FILL-ORIGIN LEVEL: 0

LLC TOTAL     ACCESS:    7822870  HIT:    2131414  MISS:    5691456  HIT %:    27.2459  MISS %:    72.7541   MPKI: 113.829
LLC LOAD      ACCESS:    7475615  HIT:    1938994  MISS:    5536621  HIT %:    25.9376  MISS %:    74.0624   MPKI: 110.732
LLC RFO       ACCESS:     154104  HIT:        354  MISS:     153750  HIT %:   0.229715  MISS %:    99.7703   MPKI: 3.075
LLC WRITEBACK ACCESS:     192038  HIT:     191888  MISS:        150  HIT %:    99.9219  MISS %:  0.0781095   MPKI: 0.003
LLC LOAD TRANSLATION ACCESS:       1113  HIT:        178  MISS:        935  HIT %:    15.9928  MISS %:    84.0072   MPKI: 0.0187
LLC PREFETCH  REQUESTED:          0  ISSUED:          0  USEFUL:          0  USELESS:          0
LLC USEFUL LOAD PREFETCHES:          0 PREFETCH ISSUED TO LOWER LEVEL:          0  ACCURACY: -nan
LLC TIMELY PREFETCHES:          0 LATE PREFETCHES: 0 DROPPED PREFETCHES: 0
LLC PREFETCHES SAME FILL-ORIGIN LEVEL: 0 DIFFERENT FILL-ORIGIN LEVEL: 0
LLC AVERAGE MISS LATENCY: 355.907 cycles
LLC RQ	ACCESS:   15294298	FORWARD:          0	MERGED:          0	TO_CACHE:   15294298
LLC WQ	ACCESS:     387170	FORWARD:          0	MERGED:          0	TO_CACHE:     387170

LLC Dense regions hint to LLC: 0

RAW hits: 2012590
Loads Generated: 22575657
Loads sent to L1D: 20563071
Stores Generated: 3711166
Stores sent to L1D: 3711168
Major fault: 0 Minor fault: 9879
Allocated PAGES: 19824

CPU 0 Self-eviction count: 5702496
CPU 1 Self-eviction count: 5691456

DRAM Statistics
 CHANNEL 0
 RQ ROW_BUFFER_HIT:    3419309  ROW_BUFFER_MISS:    7973680
 DBUS_CONGESTED:       5011
 WQ ROW_BUFFER_HIT:     127331  ROW_BUFFER_MISS:     257853  FULL:          0

 AVG_CONGESTED_CYCLE: 5
 All warmup complete: 3
Channel 0 Bank busy for read cycles: 0
Channel 0 Bank busy for write cycles: 0
Channel 0
Rank 0
0banks busy for read cycles: 800437
0banks busy for write cycles: 75
1banks busy for read cycles: 54816352
1banks busy for write cycles: 491517
2banks busy for read cycles: 92322986
2banks busy for write cycles: 465990
3banks busy for read cycles: 106698702
3banks busy for write cycles: 438856
4banks busy for read cycles: 89662099
4banks busy for write cycles: 462566
5banks busy for read cycles: 54134567
5banks busy for write cycles: 471208
6banks busy for read cycles: 22554965
6banks busy for write cycles: 554409
7banks busy for read cycles: 5709516
7banks busy for write cycles: 1579436
8banks busy for read cycles: 675334
8banks busy for write cycles: 20023704

CPU 0 Branch Prediction Accuracy: 97.6492% MPKI: 4.22603 Average ROB Occupancy at Mispredict: 52.2279
Branch types
NOT_BRANCH: 41216902 81.9014%
BRANCH_DIRECT_JUMP: 2046932 4.06742%
BRANCH_INDIRECT: 0 0%
BRANCH_CONDITIONAL: 7060416 14.0296%
BRANCH_DIRECT_CALL: 394 0.00078291%
BRANCH_INDIRECT_CALL: 0 0%
BRANCH_RETURN: 394 0.00078291%
BRANCH_OTHER: 0 0%


CPU 1 Branch Prediction Accuracy: 97.6795% MPKI: 4.20592 Average ROB Occupancy at Mispredict: 52.4511
Branch types
NOT_BRANCH: 40937316 81.8746%
BRANCH_DIRECT_JUMP: 2039127 4.07825%
BRANCH_INDIRECT: 0 0%
BRANCH_CONDITIONAL: 7022764 14.0455%
BRANCH_DIRECT_CALL: 392 0.000784%
BRANCH_INDIRECT_CALL: 0 0%
BRANCH_RETURN: 392 0.000784%
BRANCH_OTHER: 0 0%

DRAM PAGES: 1048576
Allocated PAGES: 19824
