
*** ChampSim Multicore Out-of-Order Simulator ***

Warmup Instructions: 50000000
Simulation Instructions: 50000000
Number of CPUs: 2
LLC sets: 4096
LLC ways: 16
Off-chip DRAM Size: 4096 MB Channels: 1 Width: 64-bit Data Rate: 6400 MT/s
CPU 0 runs ../Given/traces//600.perlbench_s-570B.champsimtrace.xz
.xz
CPU 1 runs ../Given/traces//600.perlbench_s-570B.champsimtrace.xz
.xz
CPU 0 Bimodal branch predictor
BTB has LRU replacement policy
ITLB has LRU replacement policy
DTLB has LRU replacement policy
STLB has LRU replacement policy
L1I has LRU replacement policy
L1D has LRU replacement policy
L2C has LRU replacement policy
LLC has LRU replacement policy
CPU 1 Bimodal branch predictor
BTB has LRU replacement policy
ITLB has LRU replacement policy
DTLB has LRU replacement policy
STLB has LRU replacement policy
L1I has LRU replacement policy
L1D has LRU replacement policy
L2C has LRU replacement policy
LLC has LRU replacement policy
Heartbeat CPU 0 instructions: 10000003 cycles: 2894104 heartbeat IPC: 3.4553 cumulative IPC: 3.4553 (Simulation time: 0 hr 0 min 27 sec) 
Heartbeat CPU 1 instructions: 10000003 cycles: 2894213 heartbeat IPC: 3.45517 cumulative IPC: 3.45517 (Simulation time: 0 hr 0 min 27 sec) 
Heartbeat CPU 0 instructions: 20000003 cycles: 5752924 heartbeat IPC: 3.49795 cumulative IPC: 3.47649 (Simulation time: 0 hr 0 min 55 sec) 
Heartbeat CPU 1 instructions: 20000003 cycles: 5753051 heartbeat IPC: 3.49792 cumulative IPC: 3.47642 (Simulation time: 0 hr 0 min 55 sec) 
Heartbeat CPU 0 instructions: 30000003 cycles: 8648465 heartbeat IPC: 3.45359 cumulative IPC: 3.46882 (Simulation time: 0 hr 1 min 28 sec) 
Heartbeat CPU 1 instructions: 30000003 cycles: 8648612 heartbeat IPC: 3.45356 cumulative IPC: 3.46877 (Simulation time: 0 hr 1 min 28 sec) 
Heartbeat CPU 0 instructions: 40000002 cycles: 11519841 heartbeat IPC: 3.48265 cumulative IPC: 3.47227 (Simulation time: 0 hr 2 min 1 sec) 
Heartbeat CPU 1 instructions: 40000002 cycles: 11520022 heartbeat IPC: 3.48261 cumulative IPC: 3.47222 (Simulation time: 0 hr 2 min 1 sec) 
Heartbeat CPU 0 instructions: 50000002 cycles: 14389513 heartbeat IPC: 3.48472 cumulative IPC: 3.47475 (Simulation time: 0 hr 2 min 32 sec) 
Heartbeat CPU 1 instructions: 50000002 cycles: 14389712 heartbeat IPC: 3.4847 cumulative IPC: 3.4747 (Simulation time: 0 hr 2 min 32 sec) 

Warmup complete CPU 0 instructions: 50000588 cycles: 14389712 (Simulation time: 0 hr 2 min 32 sec) 
Warmup complete CPU 1 instructions: 50000002 cycles: 14389712 (Simulation time: 0 hr 2 min 32 sec) 

Heartbeat CPU 0 instructions: 60000000 cycles: 29620739 heartbeat IPC: 0.656546 cumulative IPC: 0.656516 (Simulation time: 0 hr 3 min 13 sec) 
Heartbeat CPU 1 instructions: 60000000 cycles: 29620790 heartbeat IPC: 0.656552 cumulative IPC: 0.656552 (Simulation time: 0 hr 3 min 13 sec) 
Heartbeat CPU 0 instructions: 70000000 cycles: 53820751 heartbeat IPC: 0.413223 cumulative IPC: 0.5072 (Simulation time: 0 hr 3 min 52 sec) 
Heartbeat CPU 1 instructions: 70000000 cycles: 53820802 heartbeat IPC: 0.413223 cumulative IPC: 0.507214 (Simulation time: 0 hr 3 min 52 sec) 
Heartbeat CPU 0 instructions: 80000002 cycles: 79770922 heartbeat IPC: 0.385354 cumulative IPC: 0.458838 (Simulation time: 0 hr 4 min 32 sec) 
Heartbeat CPU 1 instructions: 80000002 cycles: 79770976 heartbeat IPC: 0.385354 cumulative IPC: 0.458847 (Simulation time: 0 hr 4 min 32 sec) 
Heartbeat CPU 1 instructions: 90000003 cycles: 111156119 heartbeat IPC: 0.318622 cumulative IPC: 0.413367 (Simulation time: 0 hr 5 min 13 sec) 
Heartbeat CPU 0 instructions: 90000003 cycles: 111156170 heartbeat IPC: 0.318621 cumulative IPC: 0.41336 (Simulation time: 0 hr 5 min 13 sec) 
Heartbeat CPU 1 instructions: 100000002 cycles: 127580445 heartbeat IPC: 0.608853 cumulative IPC: 0.441732 (Simulation time: 0 hr 5 min 50 sec) 
Finished CPU 1 instructions: 50000000 cycles: 113190733 cumulative IPC: 0.441732 (Simulation time: 0 hr 5 min 50 sec) 
Heartbeat CPU 0 instructions: 100000002 cycles: 127580496 heartbeat IPC: 0.608853 cumulative IPC: 0.441727 (Simulation time: 0 hr 5 min 50 sec) 
Finished CPU 0 instructions: 50000001 cycles: 113191537 cumulative IPC: 0.441729 (Simulation time: 0 hr 5 min 50 sec) 

ChampSim completed all CPUs

Total Simulation Statistics (not including warmup)

CPU 0 cumulative IPC: 0.441729 instructions: 50000001 cycles: 113191537
ITLB TOTAL     ACCESS:    7831332  HIT:    7808439  MISS:      22893  HIT %:    99.7077  MISS %:   0.292326   MPKI: 0.45786
ITLB LOAD      ACCESS:          0  HIT:          0  MISS:          0  HIT %:       -nan  MISS %:       -nan   MPKI: 0
ITLB RFO       ACCESS:          0  HIT:          0  MISS:          0  HIT %:       -nan  MISS %:       -nan   MPKI: 0
ITLB PREFETCH  ACCESS:          0  HIT:          0  MISS:          0  HIT %:       -nan  MISS %:       -nan   MPKI: 0
ITLB WRITEBACK ACCESS:          0  HIT:          0  MISS:          0  HIT %:       -nan  MISS %:       -nan   MPKI: 0
DTLB TOTAL     ACCESS:   14059896  HIT:   13915372  MISS:     144524  HIT %:    98.9721  MISS %:    1.02792   MPKI: 2.89048
DTLB LOAD      ACCESS:          0  HIT:          0  MISS:          0  HIT %:       -nan  MISS %:       -nan   MPKI: 0
DTLB RFO       ACCESS:          0  HIT:          0  MISS:          0  HIT %:       -nan  MISS %:       -nan   MPKI: 0
DTLB PREFETCH  ACCESS:          0  HIT:          0  MISS:          0  HIT %:       -nan  MISS %:       -nan   MPKI: 0
DTLB WRITEBACK ACCESS:          0  HIT:          0  MISS:          0  HIT %:       -nan  MISS %:       -nan   MPKI: 0
STLB TOTAL     ACCESS:     167417  HIT:     160462  MISS:       6955  HIT %:    95.8457  MISS %:     4.1543   MPKI: 0.1391
STLB LOAD      ACCESS:          0  HIT:          0  MISS:          0  HIT %:       -nan  MISS %:       -nan   MPKI: 0
STLB RFO       ACCESS:          0  HIT:          0  MISS:          0  HIT %:       -nan  MISS %:       -nan   MPKI: 0
STLB PREFETCH  ACCESS:          0  HIT:          0  MISS:          0  HIT %:       -nan  MISS %:       -nan   MPKI: 0
STLB WRITEBACK ACCESS:          0  HIT:          0  MISS:          0  HIT %:       -nan  MISS %:       -nan   MPKI: 0
L1D TOTAL     ACCESS:   19028875  HIT:   18867900  MISS:     160975  HIT %:     99.154  MISS %:   0.845951   MPKI: 3.2195
L1D LOAD      ACCESS:    9314253  HIT:    9170883  MISS:     143370  HIT %:    98.4607  MISS %:    1.53925   MPKI: 2.8674
L1D RFO       ACCESS:    9714622  HIT:    9697017  MISS:      17605  HIT %:    99.8188  MISS %:   0.181222   MPKI: 0.3521
L1D PREFETCH  ACCESS:          0  HIT:          0  MISS:          0  HIT %:       -nan  MISS %:       -nan   MPKI: 0
L1D WRITEBACK ACCESS:          0  HIT:          0  MISS:          0  HIT %:       -nan  MISS %:       -nan   MPKI: 0
L1I TOTAL     ACCESS:    8763784  HIT:    8505670  MISS:     258114  HIT %:    97.0548  MISS %:    2.94523   MPKI: 5.16228
L1I LOAD      ACCESS:    8763784  HIT:    8505670  MISS:     258114  HIT %:    97.0548  MISS %:    2.94523   MPKI: 5.16228
L1I RFO       ACCESS:          0  HIT:          0  MISS:          0  HIT %:       -nan  MISS %:       -nan   MPKI: 0
L1I PREFETCH  ACCESS:          0  HIT:          0  MISS:          0  HIT %:       -nan  MISS %:       -nan   MPKI: 0
L1I WRITEBACK ACCESS:          0  HIT:          0  MISS:          0  HIT %:       -nan  MISS %:       -nan   MPKI: 0
L2C TOTAL     ACCESS:     475573  HIT:     393718  MISS:      81855  HIT %:    82.7881  MISS %:    17.2119   MPKI: 1.6371
L2C LOAD      ACCESS:     401484  HIT:     328171  MISS:      73313  HIT %:    81.7395  MISS %:    18.2605   MPKI: 1.46626
L2C RFO       ACCESS:      17605  HIT:      12715  MISS:       4890  HIT %:    72.2238  MISS %:    27.7762   MPKI: 0.0978
L2C PREFETCH  ACCESS:          0  HIT:          0  MISS:          0  HIT %:       -nan  MISS %:       -nan   MPKI: 0
L2C WRITEBACK ACCESS:      48151  HIT:      47912  MISS:        239  HIT %:    99.5036  MISS %:   0.496355   MPKI: 0.00478
PSCL5 TOTAL     ACCESS:       6955  HIT:       6955  MISS:          0  HIT %:        100  MISS %:          0   MPKI: 0
PSCL5 LOAD      ACCESS:          0  HIT:          0  MISS:          0  HIT %:       -nan  MISS %:       -nan   MPKI: 0
PSCL5 RFO       ACCESS:          0  HIT:          0  MISS:          0  HIT %:       -nan  MISS %:       -nan   MPKI: 0
PSCL5 PREFETCH  ACCESS:          0  HIT:          0  MISS:          0  HIT %:       -nan  MISS %:       -nan   MPKI: 0
PSCL5 WRITEBACK ACCESS:          0  HIT:          0  MISS:          0  HIT %:       -nan  MISS %:       -nan   MPKI: 0
PSCL4 TOTAL     ACCESS:       6955  HIT:       6955  MISS:          0  HIT %:        100  MISS %:          0   MPKI: 0
PSCL4 LOAD      ACCESS:          0  HIT:          0  MISS:          0  HIT %:       -nan  MISS %:       -nan   MPKI: 0
PSCL4 RFO       ACCESS:          0  HIT:          0  MISS:          0  HIT %:       -nan  MISS %:       -nan   MPKI: 0
PSCL4 PREFETCH  ACCESS:          0  HIT:          0  MISS:          0  HIT %:       -nan  MISS %:       -nan   MPKI: 0
PSCL4 WRITEBACK ACCESS:          0  HIT:          0  MISS:          0  HIT %:       -nan  MISS %:       -nan   MPKI: 0
PSCL3 TOTAL     ACCESS:       6955  HIT:       6955  MISS:          0  HIT %:        100  MISS %:          0   MPKI: 0
PSCL3 LOAD      ACCESS:          0  HIT:          0  MISS:          0  HIT %:       -nan  MISS %:       -nan   MPKI: 0
PSCL3 RFO       ACCESS:          0  HIT:          0  MISS:          0  HIT %:       -nan  MISS %:       -nan   MPKI: 0
PSCL3 PREFETCH  ACCESS:          0  HIT:          0  MISS:          0  HIT %:       -nan  MISS %:       -nan   MPKI: 0
PSCL3 WRITEBACK ACCESS:          0  HIT:          0  MISS:          0  HIT %:       -nan  MISS %:       -nan   MPKI: 0
PSCL2 TOTAL     ACCESS:       6955  HIT:       5524  MISS:       1431  HIT %:    79.4249  MISS %:    20.5751   MPKI: 0.02862
PSCL2 LOAD      ACCESS:          0  HIT:          0  MISS:          0  HIT %:       -nan  MISS %:       -nan   MPKI: 0
PSCL2 RFO       ACCESS:          0  HIT:          0  MISS:          0  HIT %:       -nan  MISS %:       -nan   MPKI: 0
PSCL2 PREFETCH  ACCESS:          0  HIT:          0  MISS:          0  HIT %:       -nan  MISS %:       -nan   MPKI: 0
PSCL2 WRITEBACK ACCESS:          0  HIT:          0  MISS:          0  HIT %:       -nan  MISS %:       -nan   MPKI: 0
LLC TOTAL     ACCESS:      98276  HIT:      37587  MISS:      60689  HIT %:    38.2464  MISS %:    61.7536   MPKI: 1.21378
LLC LOAD      ACCESS:      73313  HIT:      18051  MISS:      55262  HIT %:    24.6218  MISS %:    75.3782   MPKI: 1.10524
LLC RFO       ACCESS:       4890  HIT:       1210  MISS:       3680  HIT %:    24.7444  MISS %:    75.2556   MPKI: 0.0736
LLC PREFETCH  ACCESS:          0  HIT:          0  MISS:          0  HIT %:       -nan  MISS %:       -nan   MPKI: 0
LLC WRITEBACK ACCESS:      16660  HIT:      16492  MISS:        168  HIT %:    98.9916  MISS %:     1.0084   MPKI: 0.00336

RAW hits: 721242
Loads Generated: 12532879
Loads sent to L1D: 11811637
Stores Generated: 9859019
Stores sent to L1D: 9859018

CPU 1 cumulative IPC: 0.441735 instructions: 50000623 cycles: 113191537
ITLB TOTAL     ACCESS:    7831396  HIT:    7808503  MISS:      22893  HIT %:    99.7077  MISS %:   0.292323   MPKI: 0.457854
ITLB LOAD      ACCESS:          0  HIT:          0  MISS:          0  HIT %:       -nan  MISS %:       -nan   MPKI: 0
ITLB RFO       ACCESS:          0  HIT:          0  MISS:          0  HIT %:       -nan  MISS %:       -nan   MPKI: 0
ITLB PREFETCH  ACCESS:          0  HIT:          0  MISS:          0  HIT %:       -nan  MISS %:       -nan   MPKI: 0
ITLB WRITEBACK ACCESS:          0  HIT:          0  MISS:          0  HIT %:       -nan  MISS %:       -nan   MPKI: 0
DTLB TOTAL     ACCESS:   14060177  HIT:   13915656  MISS:     144521  HIT %:    98.9721  MISS %:    1.02787   MPKI: 2.89038
DTLB LOAD      ACCESS:          0  HIT:          0  MISS:          0  HIT %:       -nan  MISS %:       -nan   MPKI: 0
DTLB RFO       ACCESS:          0  HIT:          0  MISS:          0  HIT %:       -nan  MISS %:       -nan   MPKI: 0
DTLB PREFETCH  ACCESS:          0  HIT:          0  MISS:          0  HIT %:       -nan  MISS %:       -nan   MPKI: 0
DTLB WRITEBACK ACCESS:          0  HIT:          0  MISS:          0  HIT %:       -nan  MISS %:       -nan   MPKI: 0
STLB TOTAL     ACCESS:     167414  HIT:     160459  MISS:       6955  HIT %:    95.8456  MISS %:    4.15437   MPKI: 0.139098
STLB LOAD      ACCESS:          0  HIT:          0  MISS:          0  HIT %:       -nan  MISS %:       -nan   MPKI: 0
STLB RFO       ACCESS:          0  HIT:          0  MISS:          0  HIT %:       -nan  MISS %:       -nan   MPKI: 0
STLB PREFETCH  ACCESS:          0  HIT:          0  MISS:          0  HIT %:       -nan  MISS %:       -nan   MPKI: 0
STLB WRITEBACK ACCESS:          0  HIT:          0  MISS:          0  HIT %:       -nan  MISS %:       -nan   MPKI: 0
L1D TOTAL     ACCESS:   19029208  HIT:   18868231  MISS:     160977  HIT %:    99.1541  MISS %:   0.845947   MPKI: 3.2195
L1D LOAD      ACCESS:    9314396  HIT:    9171026  MISS:     143370  HIT %:    98.4608  MISS %:    1.53923   MPKI: 2.86736
L1D RFO       ACCESS:    9714812  HIT:    9697205  MISS:      17607  HIT %:    99.8188  MISS %:   0.181239   MPKI: 0.352136
L1D PREFETCH  ACCESS:          0  HIT:          0  MISS:          0  HIT %:       -nan  MISS %:       -nan   MPKI: 0
L1D WRITEBACK ACCESS:          0  HIT:          0  MISS:          0  HIT %:       -nan  MISS %:       -nan   MPKI: 0
L1I TOTAL     ACCESS:    8763863  HIT:    8505749  MISS:     258114  HIT %:    97.0548  MISS %:    2.94521   MPKI: 5.16222
L1I LOAD      ACCESS:    8763863  HIT:    8505749  MISS:     258114  HIT %:    97.0548  MISS %:    2.94521   MPKI: 5.16222
L1I RFO       ACCESS:          0  HIT:          0  MISS:          0  HIT %:       -nan  MISS %:       -nan   MPKI: 0
L1I PREFETCH  ACCESS:          0  HIT:          0  MISS:          0  HIT %:       -nan  MISS %:       -nan   MPKI: 0
L1I WRITEBACK ACCESS:          0  HIT:          0  MISS:          0  HIT %:       -nan  MISS %:       -nan   MPKI: 0
L2C TOTAL     ACCESS:     475575  HIT:     394217  MISS:      81358  HIT %:    82.8927  MISS %:    17.1073   MPKI: 1.62714
L2C LOAD      ACCESS:     401484  HIT:     328528  MISS:      72956  HIT %:    81.8284  MISS %:    18.1716   MPKI: 1.4591
L2C RFO       ACCESS:      17607  HIT:      12742  MISS:       4865  HIT %:    72.3689  MISS %:    27.6311   MPKI: 0.0972988
L2C PREFETCH  ACCESS:          0  HIT:          0  MISS:          0  HIT %:       -nan  MISS %:       -nan   MPKI: 0
L2C WRITEBACK ACCESS:      48151  HIT:      47946  MISS:        205  HIT %:    99.5743  MISS %:   0.425744   MPKI: 0.00409995
PSCL5 TOTAL     ACCESS:       6955  HIT:       6955  MISS:          0  HIT %:        100  MISS %:          0   MPKI: 0
PSCL5 LOAD      ACCESS:          0  HIT:          0  MISS:          0  HIT %:       -nan  MISS %:       -nan   MPKI: 0
PSCL5 RFO       ACCESS:          0  HIT:          0  MISS:          0  HIT %:       -nan  MISS %:       -nan   MPKI: 0
PSCL5 PREFETCH  ACCESS:          0  HIT:          0  MISS:          0  HIT %:       -nan  MISS %:       -nan   MPKI: 0
PSCL5 WRITEBACK ACCESS:          0  HIT:          0  MISS:          0  HIT %:       -nan  MISS %:       -nan   MPKI: 0
PSCL4 TOTAL     ACCESS:       6955  HIT:       6955  MISS:          0  HIT %:        100  MISS %:          0   MPKI: 0
PSCL4 LOAD      ACCESS:          0  HIT:          0  MISS:          0  HIT %:       -nan  MISS %:       -nan   MPKI: 0
PSCL4 RFO       ACCESS:          0  HIT:          0  MISS:          0  HIT %:       -nan  MISS %:       -nan   MPKI: 0
PSCL4 PREFETCH  ACCESS:          0  HIT:          0  MISS:          0  HIT %:       -nan  MISS %:       -nan   MPKI: 0
PSCL4 WRITEBACK ACCESS:          0  HIT:          0  MISS:          0  HIT %:       -nan  MISS %:       -nan   MPKI: 0
PSCL3 TOTAL     ACCESS:       6955  HIT:       6955  MISS:          0  HIT %:        100  MISS %:          0   MPKI: 0
PSCL3 LOAD      ACCESS:          0  HIT:          0  MISS:          0  HIT %:       -nan  MISS %:       -nan   MPKI: 0
PSCL3 RFO       ACCESS:          0  HIT:          0  MISS:          0  HIT %:       -nan  MISS %:       -nan   MPKI: 0
PSCL3 PREFETCH  ACCESS:          0  HIT:          0  MISS:          0  HIT %:       -nan  MISS %:       -nan   MPKI: 0
PSCL3 WRITEBACK ACCESS:          0  HIT:          0  MISS:          0  HIT %:       -nan  MISS %:       -nan   MPKI: 0
PSCL2 TOTAL     ACCESS:       6955  HIT:       5524  MISS:       1431  HIT %:    79.4249  MISS %:    20.5751   MPKI: 0.0286196
PSCL2 LOAD      ACCESS:          0  HIT:          0  MISS:          0  HIT %:       -nan  MISS %:       -nan   MPKI: 0
PSCL2 RFO       ACCESS:          0  HIT:          0  MISS:          0  HIT %:       -nan  MISS %:       -nan   MPKI: 0
PSCL2 PREFETCH  ACCESS:          0  HIT:          0  MISS:          0  HIT %:       -nan  MISS %:       -nan   MPKI: 0
PSCL2 WRITEBACK ACCESS:          0  HIT:          0  MISS:          0  HIT %:       -nan  MISS %:       -nan   MPKI: 0
LLC TOTAL     ACCESS:      97661  HIT:      37008  MISS:      60653  HIT %:    37.8943  MISS %:    62.1057   MPKI: 1.21304
LLC LOAD      ACCESS:      72956  HIT:      17635  MISS:      55321  HIT %:    24.1721  MISS %:    75.8279   MPKI: 1.10641
LLC RFO       ACCESS:       4865  HIT:       1213  MISS:       3652  HIT %:    24.9332  MISS %:    75.0668   MPKI: 0.0730391
LLC PREFETCH  ACCESS:          0  HIT:          0  MISS:          0  HIT %:       -nan  MISS %:       -nan   MPKI: 0
LLC WRITEBACK ACCESS:      16508  HIT:      16398  MISS:        110  HIT %:    99.3337  MISS %:   0.666344   MPKI: 0.00219997

RAW hits: 721148
Loads Generated: 12533001
Loads sent to L1D: 11811852
Stores Generated: 9859152
Stores sent to L1D: 9859170

Region of Interest Statistics

CPU 0 cumulative IPC: 0.441729 instructions: 50000001 cycles: 113191537
ITLB TOTAL     ACCESS:    7831332  HIT:    7808439  MISS:      22893  HIT %:    99.7077  MISS %:   0.292326   MPKI: 0.45786
ITLB LOAD TRANSLATION ACCESS:    7831332  HIT:    7808439  MISS:      22893  HIT %:    99.7077  MISS %:   0.292326   MPKI: 0.45786
ITLB PREFETCH  REQUESTED:          0  ISSUED:          0  USEFUL:          0  USELESS:          0
ITLB USEFUL LOAD PREFETCHES:          0 PREFETCH ISSUED TO LOWER LEVEL:          0  ACCURACY: -nan
ITLB TIMELY PREFETCHES:          0 LATE PREFETCHES: 0 DROPPED PREFETCHES: 0
ITLB PREFETCHES SAME FILL-ORIGIN LEVEL: 0 DIFFERENT FILL-ORIGIN LEVEL: 0
ITLB AVERAGE MISS LATENCY: 10.1484 cycles
ITLB RQ	ACCESS:    8823160	FORWARD:          0	MERGED:     983644	TO_CACHE:    7839516

DTLB TOTAL     ACCESS:   14059896  HIT:   13915372  MISS:     144524  HIT %:    98.9721  MISS %:    1.02792   MPKI: 2.89048
DTLB LOAD TRANSLATION ACCESS:   14059896  HIT:   13915372  MISS:     144524  HIT %:    98.9721  MISS %:    1.02792   MPKI: 2.89048
DTLB PREFETCH  REQUESTED:          0  ISSUED:          0  USEFUL:          0  USELESS:          0
DTLB USEFUL LOAD PREFETCHES:          0 PREFETCH ISSUED TO LOWER LEVEL:          0  ACCURACY: -nan
DTLB TIMELY PREFETCHES:          0 LATE PREFETCHES: 0 DROPPED PREFETCHES: 0
DTLB PREFETCHES SAME FILL-ORIGIN LEVEL: 0 DIFFERENT FILL-ORIGIN LEVEL: 0
DTLB AVERAGE MISS LATENCY: 15.5018 cycles
DTLB RQ	ACCESS:   19072842	FORWARD:          0	MERGED:    5008809	TO_CACHE:   14064033

STLB TOTAL     ACCESS:     167417  HIT:     160462  MISS:       6955  HIT %:    95.8457  MISS %:     4.1543   MPKI: 0.1391
STLB LOAD TRANSLATION ACCESS:     167417  HIT:     160462  MISS:       6955  HIT %:    95.8457  MISS %:     4.1543   MPKI: 0.1391
STLB PREFETCH  REQUESTED:          0  ISSUED:          0  USEFUL:          0  USELESS:          0
STLB USEFUL LOAD PREFETCHES:          0 PREFETCH ISSUED TO LOWER LEVEL:          0  ACCURACY: -nan
STLB TIMELY PREFETCHES:          0 LATE PREFETCHES: 0 DROPPED PREFETCHES: 0
STLB PREFETCHES SAME FILL-ORIGIN LEVEL: 0 DIFFERENT FILL-ORIGIN LEVEL: 0
STLB AVERAGE MISS LATENCY: 137.918 cycles
STLB RQ	ACCESS:     167417	FORWARD:          0	MERGED:          0	TO_CACHE:     167417

STLB Hit, L1D data hit: 0
STLB Hit, L2C data hit: 0
STLB Hit, LLC data hit: 0
STLB Hit, LLC data miss: 0
STLB STLB hints to L2: 0
L1D TOTAL     ACCESS:   19028875  HIT:   18867900  MISS:     160975  HIT %:     99.154  MISS %:   0.845951   MPKI: 3.2195
L1D LOAD      ACCESS:    9314253  HIT:    9170883  MISS:     143370  HIT %:    98.4607  MISS %:    1.53925   MPKI: 2.8674
L1D RFO       ACCESS:    9714622  HIT:    9697017  MISS:      17605  HIT %:    99.8188  MISS %:   0.181222   MPKI: 0.3521
L1D PREFETCH  REQUESTED:          0  ISSUED:          0  USEFUL:          0  USELESS:          0
L1D USEFUL LOAD PREFETCHES:          0 PREFETCH ISSUED TO LOWER LEVEL:          0  ACCURACY: -nan
L1D TIMELY PREFETCHES:          0 LATE PREFETCHES: 0 DROPPED PREFETCHES: 0
L1D PREFETCHES SAME FILL-ORIGIN LEVEL: 0 DIFFERENT FILL-ORIGIN LEVEL: 0
L1D AVERAGE MISS LATENCY: 79.4945 cycles
L1D RQ	ACCESS:   11811637	FORWARD:          0	MERGED:    2226456	TO_CACHE:    9325286
L1D WQ	ACCESS:    9859018	FORWARD:     259895	MERGED:     111462	TO_CACHE:    9747556

L1D UNIQUE REGIONS ACCESSED: 0
L1D REGIONS CONFLICTS: 0
L1D Cross Page Prefetch Requests: 0
L1D Same Page Prefetch Requests: 0
L1D ROI Sum of L1D PQ occupancy: 0
L1D PREFETCHES PUSHED FROM L2C: 0
L1I TOTAL     ACCESS:    8763784  HIT:    8505670  MISS:     258114  HIT %:    97.0548  MISS %:    2.94523   MPKI: 5.16228
L1I LOAD      ACCESS:    8763784  HIT:    8505670  MISS:     258114  HIT %:    97.0548  MISS %:    2.94523   MPKI: 5.16228
L1I PREFETCH  REQUESTED:          0  ISSUED:          0  USEFUL:          0  USELESS:          0
L1I USEFUL LOAD PREFETCHES:          0 PREFETCH ISSUED TO LOWER LEVEL:          0  ACCURACY: -nan
L1I TIMELY PREFETCHES:          0 LATE PREFETCHES: 0 DROPPED PREFETCHES: 0
L1I PREFETCHES SAME FILL-ORIGIN LEVEL: 0 DIFFERENT FILL-ORIGIN LEVEL: 0
L1I AVERAGE MISS LATENCY: 17.7551 cycles
L1I RQ	ACCESS:   14031527	FORWARD:          0	MERGED:    5208367	TO_CACHE:    8823160

BTB TOTAL     ACCESS:    6455214  HIT:    6061186  MISS:     394028  HIT %:     93.896  MISS %:    6.10403   MPKI: 7.88056
BTB BRANCH_DIRECT_JUMP	ACCESS:    1045250  HIT:    1041764  MISS:       3486
BTB BRANCH_INDIRECT	ACCESS:     321897  HIT:     103580  MISS:     218317
BTB BRANCH_CONDITIONAL	ACCESS:    4118159  HIT:    4108395  MISS:       9764
BTB BRANCH_DIRECT_CALL	ACCESS:     381768  HIT:     379264  MISS:       2504
BTB BRANCH_INDIRECT_CALL	ACCESS:     103186  HIT:      11246  MISS:      91940
BTB BRANCH_RETURN	ACCESS:     484954  HIT:     416937  MISS:      68017
BTB BRANCH_OTHER ACCESS:          0  HIT:          0  MISS:          0

L2C TOTAL     ACCESS:     475573  HIT:     393718  MISS:      81855  HIT %:    82.7881  MISS %:    17.2119   MPKI: 1.6371
L2C LOAD      ACCESS:     401484  HIT:     328171  MISS:      73313  HIT %:    81.7395  MISS %:    18.2605   MPKI: 1.46626
L2C DATA LOAD MPKI: 1.24262
L2C INSTRUCTION LOAD MPKI: 0.22364
L2C RFO       ACCESS:      17605  HIT:      12715  MISS:       4890  HIT %:    72.2238  MISS %:    27.7762   MPKI: 0.0978
L2C WRITEBACK ACCESS:      48151  HIT:      47912  MISS:        239  HIT %:    99.5036  MISS %:   0.496355   MPKI: 0.00478
L2C LOAD TRANSLATION ACCESS:       8333  HIT:       4920  MISS:       3413  HIT %:    59.0424  MISS %:    40.9576   MPKI: 0.06826
L2C PREFETCH  REQUESTED:          0  ISSUED:          0  USEFUL:          0  USELESS:          0
L2C USEFUL LOAD PREFETCHES:          0 PREFETCH ISSUED TO LOWER LEVEL:          0  ACCURACY: -nan
L2C TIMELY PREFETCHES:          0 LATE PREFETCHES: 0 DROPPED PREFETCHES: 0
L2C PREFETCHES SAME FILL-ORIGIN LEVEL: 0 DIFFERENT FILL-ORIGIN LEVEL: 0
L2C AVERAGE MISS LATENCY: 143.062 cycles
L2C RQ	ACCESS:     427422	FORWARD:          0	MERGED:          0	TO_CACHE:     427422
L2C WQ	ACCESS:      48151	FORWARD:          0	MERGED:          0	TO_CACHE:      48151

L2C Instructions Evicting Data 8533
L2C Translations Evicting Data 2753
L2C Data Evicting Data 54153
L2C Instructions Evicting Instructions 1878
L2C Translations Evicting Instructions 386
L2C Data Evicting Instructions 8305
L2C Instructions Evicting Translations 410
L2C Translations Evicting Translations 141
L2C Data Evicting Translations 2740
L2C Dense regions hint from L2: 0
PSCL5 TOTAL     ACCESS:       6955  HIT:       6955  MISS:          0  HIT %:        100  MISS %:          0   MPKI: 0
PSCL5 LOAD TRANSLATION ACCESS:       6955  HIT:       6955  MISS:          0  HIT %:        100  MISS %:          0   MPKI: 0
PSCL5 PREFETCH  REQUESTED:          0  ISSUED:          0  USEFUL:          0  USELESS:          0
PSCL5 USEFUL LOAD PREFETCHES:          0 PREFETCH ISSUED TO LOWER LEVEL:          0  ACCURACY: -nan
PSCL5 TIMELY PREFETCHES:          0 LATE PREFETCHES: 0 DROPPED PREFETCHES: 0
PSCL5 PREFETCHES SAME FILL-ORIGIN LEVEL: 0 DIFFERENT FILL-ORIGIN LEVEL: 0

PSCL4 TOTAL     ACCESS:       6955  HIT:       6955  MISS:          0  HIT %:        100  MISS %:          0   MPKI: 0
PSCL4 LOAD TRANSLATION ACCESS:       6955  HIT:       6955  MISS:          0  HIT %:        100  MISS %:          0   MPKI: 0
PSCL4 PREFETCH  REQUESTED:          0  ISSUED:          0  USEFUL:          0  USELESS:          0
PSCL4 USEFUL LOAD PREFETCHES:          0 PREFETCH ISSUED TO LOWER LEVEL:          0  ACCURACY: -nan
PSCL4 TIMELY PREFETCHES:          0 LATE PREFETCHES: 0 DROPPED PREFETCHES: 0
PSCL4 PREFETCHES SAME FILL-ORIGIN LEVEL: 0 DIFFERENT FILL-ORIGIN LEVEL: 0

PSCL3 TOTAL     ACCESS:       6955  HIT:       6955  MISS:          0  HIT %:        100  MISS %:          0   MPKI: 0
PSCL3 LOAD TRANSLATION ACCESS:       6955  HIT:       6955  MISS:          0  HIT %:        100  MISS %:          0   MPKI: 0
PSCL3 PREFETCH  REQUESTED:          0  ISSUED:          0  USEFUL:          0  USELESS:          0
PSCL3 USEFUL LOAD PREFETCHES:          0 PREFETCH ISSUED TO LOWER LEVEL:          0  ACCURACY: -nan
PSCL3 TIMELY PREFETCHES:          0 LATE PREFETCHES: 0 DROPPED PREFETCHES: 0
PSCL3 PREFETCHES SAME FILL-ORIGIN LEVEL: 0 DIFFERENT FILL-ORIGIN LEVEL: 0

PSCL2 TOTAL     ACCESS:       6955  HIT:       5524  MISS:       1431  HIT %:    79.4249  MISS %:    20.5751   MPKI: 0.02862
PSCL2 LOAD TRANSLATION ACCESS:       6955  HIT:       5524  MISS:       1431  HIT %:    79.4249  MISS %:    20.5751   MPKI: 0.02862
PSCL2 PREFETCH  REQUESTED:          0  ISSUED:          0  USEFUL:          0  USELESS:          0
PSCL2 USEFUL LOAD PREFETCHES:          0 PREFETCH ISSUED TO LOWER LEVEL:          0  ACCURACY: -nan
PSCL2 TIMELY PREFETCHES:          0 LATE PREFETCHES: 0 DROPPED PREFETCHES: 0
PSCL2 PREFETCHES SAME FILL-ORIGIN LEVEL: 0 DIFFERENT FILL-ORIGIN LEVEL: 0

LLC TOTAL     ACCESS:      98276  HIT:      37587  MISS:      60689  HIT %:    38.2464  MISS %:    61.7536   MPKI: 1.21378
LLC LOAD      ACCESS:      73313  HIT:      18051  MISS:      55262  HIT %:    24.6218  MISS %:    75.3782   MPKI: 1.10524
LLC RFO       ACCESS:       4890  HIT:       1210  MISS:       3680  HIT %:    24.7444  MISS %:    75.2556   MPKI: 0.0736
LLC WRITEBACK ACCESS:      16660  HIT:      16492  MISS:        168  HIT %:    98.9916  MISS %:     1.0084   MPKI: 0.00336
LLC LOAD TRANSLATION ACCESS:       3413  HIT:       1834  MISS:       1579  HIT %:    53.7357  MISS %:    46.2643   MPKI: 0.03158
LLC PREFETCH  REQUESTED:          0  ISSUED:          0  USEFUL:          0  USELESS:          0
LLC USEFUL LOAD PREFETCHES:          0 PREFETCH ISSUED TO LOWER LEVEL:          0  ACCURACY: -nan
LLC TIMELY PREFETCHES:          0 LATE PREFETCHES: 0 DROPPED PREFETCHES: 0
LLC PREFETCHES SAME FILL-ORIGIN LEVEL: 0 DIFFERENT FILL-ORIGIN LEVEL: 0
LLC AVERAGE MISS LATENCY: 304.575 cycles
LLC RQ	ACCESS:     162769	FORWARD:          0	MERGED:          0	TO_CACHE:     162769
LLC WQ	ACCESS:      33168	FORWARD:          0	MERGED:          0	TO_CACHE:      33168

LLC Dense regions hint to LLC: 0

RAW hits: 721242
Loads Generated: 12532879
Loads sent to L1D: 11811637
Stores Generated: 9859019
Stores sent to L1D: 9859018
Major fault: 0 Minor fault: 5057
Allocated PAGES: 10114

CPU 1 cumulative IPC: 0.441732 instructions: 50000000 cycles: 113190733
ITLB TOTAL     ACCESS:    7831313  HIT:    7808420  MISS:      22893  HIT %:    99.7077  MISS %:   0.292326   MPKI: 0.45786
ITLB LOAD TRANSLATION ACCESS:    7831313  HIT:    7808420  MISS:      22893  HIT %:    99.7077  MISS %:   0.292326   MPKI: 0.45786
ITLB PREFETCH  REQUESTED:          0  ISSUED:          0  USEFUL:          0  USELESS:          0
ITLB USEFUL LOAD PREFETCHES:          0 PREFETCH ISSUED TO LOWER LEVEL:          0  ACCURACY: -nan
ITLB TIMELY PREFETCHES:          0 LATE PREFETCHES: 0 DROPPED PREFETCHES: 0
ITLB PREFETCHES SAME FILL-ORIGIN LEVEL: 0 DIFFERENT FILL-ORIGIN LEVEL: 0
ITLB AVERAGE MISS LATENCY: 10.2164 cycles
ITLB RQ	ACCESS:    8823245	FORWARD:          0	MERGED:     983664	TO_CACHE:    7839581

DTLB TOTAL     ACCESS:   14060026  HIT:   13915505  MISS:     144521  HIT %:    98.9721  MISS %:    1.02789   MPKI: 2.89042
DTLB LOAD TRANSLATION ACCESS:   14060026  HIT:   13915505  MISS:     144521  HIT %:    98.9721  MISS %:    1.02789   MPKI: 2.89042
DTLB PREFETCH  REQUESTED:          0  ISSUED:          0  USEFUL:          0  USELESS:          0
DTLB USEFUL LOAD PREFETCHES:          0 PREFETCH ISSUED TO LOWER LEVEL:          0  ACCURACY: -nan
DTLB TIMELY PREFETCHES:          0 LATE PREFETCHES: 0 DROPPED PREFETCHES: 0
DTLB PREFETCHES SAME FILL-ORIGIN LEVEL: 0 DIFFERENT FILL-ORIGIN LEVEL: 0
DTLB AVERAGE MISS LATENCY: 15.4931 cycles
DTLB RQ	ACCESS:   19073194	FORWARD:          0	MERGED:    5008889	TO_CACHE:   14064305

STLB TOTAL     ACCESS:     167414  HIT:     160459  MISS:       6955  HIT %:    95.8456  MISS %:    4.15437   MPKI: 0.1391
STLB LOAD TRANSLATION ACCESS:     167414  HIT:     160459  MISS:       6955  HIT %:    95.8456  MISS %:    4.15437   MPKI: 0.1391
STLB PREFETCH  REQUESTED:          0  ISSUED:          0  USEFUL:          0  USELESS:          0
STLB USEFUL LOAD PREFETCHES:          0 PREFETCH ISSUED TO LOWER LEVEL:          0  ACCURACY: -nan
STLB TIMELY PREFETCHES:          0 LATE PREFETCHES: 0 DROPPED PREFETCHES: 0
STLB PREFETCHES SAME FILL-ORIGIN LEVEL: 0 DIFFERENT FILL-ORIGIN LEVEL: 0
STLB AVERAGE MISS LATENCY: 137.945 cycles
STLB RQ	ACCESS:     167414	FORWARD:          0	MERGED:          0	TO_CACHE:     167414

STLB Hit, L1D data hit: 0
STLB Hit, L2C data hit: 0
STLB Hit, LLC data hit: 0
STLB Hit, LLC data miss: 0
STLB STLB hints to L2: 0
L1D TOTAL     ACCESS:   19028957  HIT:   18867980  MISS:     160977  HIT %:     99.154  MISS %:   0.845958   MPKI: 3.21954
L1D LOAD      ACCESS:    9314288  HIT:    9170918  MISS:     143370  HIT %:    98.4608  MISS %:    1.53925   MPKI: 2.8674
L1D RFO       ACCESS:    9714669  HIT:    9697062  MISS:      17607  HIT %:    99.8188  MISS %:   0.181241   MPKI: 0.35214
L1D PREFETCH  REQUESTED:          0  ISSUED:          0  USEFUL:          0  USELESS:          0
L1D USEFUL LOAD PREFETCHES:          0 PREFETCH ISSUED TO LOWER LEVEL:          0  ACCURACY: -nan
L1D TIMELY PREFETCHES:          0 LATE PREFETCHES: 0 DROPPED PREFETCHES: 0
L1D PREFETCHES SAME FILL-ORIGIN LEVEL: 0 DIFFERENT FILL-ORIGIN LEVEL: 0
L1D AVERAGE MISS LATENCY: 79.3075 cycles
L1D RQ	ACCESS:   11811852	FORWARD:          0	MERGED:    2226454	TO_CACHE:    9325486
L1D WQ	ACCESS:    9859170	FORWARD:     259912	MERGED:     111462	TO_CACHE:    9747708

L1D UNIQUE REGIONS ACCESSED: 0
L1D REGIONS CONFLICTS: 0
L1D Cross Page Prefetch Requests: 0
L1D Same Page Prefetch Requests: 0
L1D ROI Sum of L1D PQ occupancy: 0
L1D PREFETCHES PUSHED FROM L2C: 0
L1I TOTAL     ACCESS:    8763769  HIT:    8505655  MISS:     258114  HIT %:    97.0548  MISS %:    2.94524   MPKI: 5.16228
L1I LOAD      ACCESS:    8763769  HIT:    8505655  MISS:     258114  HIT %:    97.0548  MISS %:    2.94524   MPKI: 5.16228
L1I PREFETCH  REQUESTED:          0  ISSUED:          0  USEFUL:          0  USELESS:          0
L1I USEFUL LOAD PREFETCHES:          0 PREFETCH ISSUED TO LOWER LEVEL:          0  ACCURACY: -nan
L1I TIMELY PREFETCHES:          0 LATE PREFETCHES: 0 DROPPED PREFETCHES: 0
L1I PREFETCHES SAME FILL-ORIGIN LEVEL: 0 DIFFERENT FILL-ORIGIN LEVEL: 0
L1I AVERAGE MISS LATENCY: 17.7489 cycles
L1I RQ	ACCESS:   14031529	FORWARD:          0	MERGED:    5208284	TO_CACHE:    8823245

BTB TOTAL     ACCESS:    6455176  HIT:    6061139  MISS:     394037  HIT %:    93.8958  MISS %:     6.1042   MPKI: 7.88074
BTB BRANCH_DIRECT_JUMP	ACCESS:    1045243  HIT:    1041753  MISS:       3490
BTB BRANCH_INDIRECT	ACCESS:     321894  HIT:     103579  MISS:     218315
BTB BRANCH_CONDITIONAL	ACCESS:    4118131  HIT:    4108360  MISS:       9771
BTB BRANCH_DIRECT_CALL	ACCESS:     381768  HIT:     379264  MISS:       2504
BTB BRANCH_INDIRECT_CALL	ACCESS:     103186  HIT:      11246  MISS:      91940
BTB BRANCH_RETURN	ACCESS:     484954  HIT:     416937  MISS:      68017
BTB BRANCH_OTHER ACCESS:          0  HIT:          0  MISS:          0

L2C TOTAL     ACCESS:     475575  HIT:     394217  MISS:      81358  HIT %:    82.8927  MISS %:    17.1073   MPKI: 1.62716
L2C LOAD      ACCESS:     401484  HIT:     328528  MISS:      72956  HIT %:    81.8284  MISS %:    18.1716   MPKI: 1.45912
L2C DATA LOAD MPKI: 1.23902
L2C INSTRUCTION LOAD MPKI: 0.2201
L2C RFO       ACCESS:      17607  HIT:      12742  MISS:       4865  HIT %:    72.3689  MISS %:    27.6311   MPKI: 0.0973
L2C WRITEBACK ACCESS:      48151  HIT:      47946  MISS:        205  HIT %:    99.5743  MISS %:   0.425744   MPKI: 0.0041
L2C LOAD TRANSLATION ACCESS:       8333  HIT:       5001  MISS:       3332  HIT %:    60.0144  MISS %:    39.9856   MPKI: 0.06664
L2C PREFETCH  REQUESTED:          0  ISSUED:          0  USEFUL:          0  USELESS:          0
L2C USEFUL LOAD PREFETCHES:          0 PREFETCH ISSUED TO LOWER LEVEL:          0  ACCURACY: -nan
L2C TIMELY PREFETCHES:          0 LATE PREFETCHES: 0 DROPPED PREFETCHES: 0
L2C PREFETCHES SAME FILL-ORIGIN LEVEL: 0 DIFFERENT FILL-ORIGIN LEVEL: 0
L2C AVERAGE MISS LATENCY: 143.587 cycles
L2C RQ	ACCESS:     427424	FORWARD:          0	MERGED:          0	TO_CACHE:     427424
L2C WQ	ACCESS:      48151	FORWARD:          0	MERGED:          0	TO_CACHE:      48151

L2C Instructions Evicting Data 8433
L2C Translations Evicting Data 2676
L2C Data Evicting Data 54135
L2C Instructions Evicting Instructions 1795
L2C Translations Evicting Instructions 417
L2C Data Evicting Instructions 8163
L2C Instructions Evicting Translations 446
L2C Translations Evicting Translations 131
L2C Data Evicting Translations 2635
L2C Dense regions hint from L2: 0
PSCL5 TOTAL     ACCESS:       6955  HIT:       6955  MISS:          0  HIT %:        100  MISS %:          0   MPKI: 0
PSCL5 LOAD TRANSLATION ACCESS:       6955  HIT:       6955  MISS:          0  HIT %:        100  MISS %:          0   MPKI: 0
PSCL5 PREFETCH  REQUESTED:          0  ISSUED:          0  USEFUL:          0  USELESS:          0
PSCL5 USEFUL LOAD PREFETCHES:          0 PREFETCH ISSUED TO LOWER LEVEL:          0  ACCURACY: -nan
PSCL5 TIMELY PREFETCHES:          0 LATE PREFETCHES: 0 DROPPED PREFETCHES: 0
PSCL5 PREFETCHES SAME FILL-ORIGIN LEVEL: 0 DIFFERENT FILL-ORIGIN LEVEL: 0

PSCL4 TOTAL     ACCESS:       6955  HIT:       6955  MISS:          0  HIT %:        100  MISS %:          0   MPKI: 0
PSCL4 LOAD TRANSLATION ACCESS:       6955  HIT:       6955  MISS:          0  HIT %:        100  MISS %:          0   MPKI: 0
PSCL4 PREFETCH  REQUESTED:          0  ISSUED:          0  USEFUL:          0  USELESS:          0
PSCL4 USEFUL LOAD PREFETCHES:          0 PREFETCH ISSUED TO LOWER LEVEL:          0  ACCURACY: -nan
PSCL4 TIMELY PREFETCHES:          0 LATE PREFETCHES: 0 DROPPED PREFETCHES: 0
PSCL4 PREFETCHES SAME FILL-ORIGIN LEVEL: 0 DIFFERENT FILL-ORIGIN LEVEL: 0

PSCL3 TOTAL     ACCESS:       6955  HIT:       6955  MISS:          0  HIT %:        100  MISS %:          0   MPKI: 0
PSCL3 LOAD TRANSLATION ACCESS:       6955  HIT:       6955  MISS:          0  HIT %:        100  MISS %:          0   MPKI: 0
PSCL3 PREFETCH  REQUESTED:          0  ISSUED:          0  USEFUL:          0  USELESS:          0
PSCL3 USEFUL LOAD PREFETCHES:          0 PREFETCH ISSUED TO LOWER LEVEL:          0  ACCURACY: -nan
PSCL3 TIMELY PREFETCHES:          0 LATE PREFETCHES: 0 DROPPED PREFETCHES: 0
PSCL3 PREFETCHES SAME FILL-ORIGIN LEVEL: 0 DIFFERENT FILL-ORIGIN LEVEL: 0

PSCL2 TOTAL     ACCESS:       6955  HIT:       5524  MISS:       1431  HIT %:    79.4249  MISS %:    20.5751   MPKI: 0.02862
PSCL2 LOAD TRANSLATION ACCESS:       6955  HIT:       5524  MISS:       1431  HIT %:    79.4249  MISS %:    20.5751   MPKI: 0.02862
PSCL2 PREFETCH  REQUESTED:          0  ISSUED:          0  USEFUL:          0  USELESS:          0
PSCL2 USEFUL LOAD PREFETCHES:          0 PREFETCH ISSUED TO LOWER LEVEL:          0  ACCURACY: -nan
PSCL2 TIMELY PREFETCHES:          0 LATE PREFETCHES: 0 DROPPED PREFETCHES: 0
PSCL2 PREFETCHES SAME FILL-ORIGIN LEVEL: 0 DIFFERENT FILL-ORIGIN LEVEL: 0

LLC TOTAL     ACCESS:      97661  HIT:      37008  MISS:      60653  HIT %:    37.8943  MISS %:    62.1057   MPKI: 1.21306
LLC LOAD      ACCESS:      72956  HIT:      17635  MISS:      55321  HIT %:    24.1721  MISS %:    75.8279   MPKI: 1.10642
LLC RFO       ACCESS:       4865  HIT:       1213  MISS:       3652  HIT %:    24.9332  MISS %:    75.0668   MPKI: 0.07304
LLC WRITEBACK ACCESS:      16508  HIT:      16398  MISS:        110  HIT %:    99.3337  MISS %:   0.666344   MPKI: 0.0022
LLC LOAD TRANSLATION ACCESS:       3332  HIT:       1762  MISS:       1570  HIT %:    52.8812  MISS %:    47.1188   MPKI: 0.0314
LLC PREFETCH  REQUESTED:          0  ISSUED:          0  USEFUL:          0  USELESS:          0
LLC USEFUL LOAD PREFETCHES:          0 PREFETCH ISSUED TO LOWER LEVEL:          0  ACCURACY: -nan
LLC TIMELY PREFETCHES:          0 LATE PREFETCHES: 0 DROPPED PREFETCHES: 0
LLC PREFETCHES SAME FILL-ORIGIN LEVEL: 0 DIFFERENT FILL-ORIGIN LEVEL: 0
LLC AVERAGE MISS LATENCY: 304.756 cycles
LLC RQ	ACCESS:     162769	FORWARD:          0	MERGED:          0	TO_CACHE:     162769
LLC WQ	ACCESS:      33168	FORWARD:          0	MERGED:          0	TO_CACHE:      33168

LLC Dense regions hint to LLC: 0

RAW hits: 721140
Loads Generated: 12532841
Loads sent to L1D: 11811702
Stores Generated: 9859017
Stores sent to L1D: 9859024
Major fault: 0 Minor fault: 5057
Allocated PAGES: 10114

CPU 0 Self-eviction count: 34068
CPU 1 Self-eviction count: 34016

DRAM Statistics
 CHANNEL 0
 RQ ROW_BUFFER_HIT:      62834  ROW_BUFFER_MISS:      58230
 DBUS_CONGESTED:         44
 WQ ROW_BUFFER_HIT:       3538  ROW_BUFFER_MISS:       9766  FULL:          0

 AVG_CONGESTED_CYCLE: 5
 All warmup complete: 3
Channel 0 Bank busy for read cycles: 0
Channel 0 Bank busy for write cycles: 0
Channel 0
Rank 0
0banks busy for read cycles: 100922914
0banks busy for write cycles: 7903
1banks busy for read cycles: 9081001
1banks busy for write cycles: 1384410
2banks busy for read cycles: 1058443
2banks busy for write cycles: 371735
3banks busy for read cycles: 139634
3banks busy for write cycles: 116804
4banks busy for read cycles: 17614
4banks busy for write cycles: 41887
5banks busy for read cycles: 7587
5banks busy for write cycles: 13400
6banks busy for read cycles: 6198
6banks busy for write cycles: 5167
7banks busy for read cycles: 6238
7banks busy for write cycles: 1485
8banks busy for read cycles: 8806
8banks busy for write cycles: 312

CPU 0 Branch Prediction Accuracy: 96.2601% MPKI: 6.26917 Average ROB Occupancy at Mispredict: 28.752
Branch types
NOT_BRANCH: 41618476 83.237%
BRANCH_DIRECT_JUMP: 1045250 2.0905%
BRANCH_INDIRECT: 321897 0.643794%
BRANCH_CONDITIONAL: 6044491 12.089%
BRANCH_DIRECT_CALL: 381768 0.763536%
BRANCH_INDIRECT_CALL: 103186 0.206372%
BRANCH_RETURN: 484954 0.969908%
BRANCH_OTHER: 0 0%


CPU 1 Branch Prediction Accuracy: 96.2601% MPKI: 6.26918 Average ROB Occupancy at Mispredict: 28.7452
Branch types
NOT_BRANCH: 41618730 83.2364%
BRANCH_DIRECT_JUMP: 1045256 2.09049%
BRANCH_INDIRECT: 321900 0.643792%
BRANCH_CONDITIONAL: 6044513 12.0889%
BRANCH_DIRECT_CALL: 381768 0.763526%
BRANCH_INDIRECT_CALL: 103186 0.206369%
BRANCH_RETURN: 484954 0.969896%
BRANCH_OTHER: 0 0%

DRAM PAGES: 1048576
Allocated PAGES: 10114
