
---------- Begin Simulation Statistics ----------
final_tick                               6395810346500                       # Number of ticks from beginning of simulation (restored from checkpoints and never reset)
host_inst_rate                                 260184                       # Simulator instruction rate (inst/s)
host_mem_usage                               45760824                       # Number of bytes of host memory used
host_op_rate                                   264112                       # Simulator op (including micro ops) rate (op/s)
host_seconds                                  7686.86                       # Real time elapsed on the host
host_tick_rate                              165908765                       # Simulator tick rate (ticks/s)
sim_freq                                 1000000000000                       # Frequency of simulated ticks
sim_insts                                  2000000023                       # Number of instructions simulated
sim_ops                                    2030196181                       # Number of ops (including micro ops) simulated
sim_seconds                                  1.275318                       # Number of seconds simulated
sim_ticks                                1275317961500                       # Number of ticks simulated
system.cpu.Branches                                 9                       # Number of branches fetched
system.cpu.committedInsts                          20                       # Number of instructions committed
system.cpu.committedOps                            20                       # Number of ops (including micro ops) committed
system.cpu.dcache.MSHRs.leapFrogMisses       10392045                       # number of false blocks from MSHR
system.cpu.icache.MSHRs.leapFrogMisses              0                       # number of false blocks from MSHR
system.cpu.idle_fraction                            0                       # Percentage of idle cycles
system.cpu.not_idle_fraction                        1                       # Percentage of non-idle cycles
system.cpu.numCycles                               20                       # number of cpu cycles simulated
system.cpu.numWorkItemsCompleted                    0                       # number of work items this cpu completed
system.cpu.numWorkItemsStarted                      0                       # number of work items this cpu started
system.cpu.num_busy_cycles                         20                       # Number of busy cycles
system.cpu.num_cc_register_reads                   15                       # number of times the CC registers were read
system.cpu.num_cc_register_writes                   9                       # number of times the CC registers were written
system.cpu.num_conditional_control_insts            5                       # number of instructions that are conditional controls
system.cpu.num_fp_alu_accesses                      0                       # Number of float alu accesses
system.cpu.num_fp_insts                             0                       # number of float instructions
system.cpu.num_fp_register_reads                    0                       # number of times the floating registers were read
system.cpu.num_fp_register_writes                   0                       # number of times the floating registers were written
system.cpu.num_func_calls                           2                       # number of times a function call or return occured
system.cpu.num_idle_cycles                          0                       # Number of idle cycles
system.cpu.num_int_alu_accesses                    13                       # Number of integer alu accesses
system.cpu.num_int_insts                           13                       # number of integer instructions
system.cpu.num_int_register_reads                  17                       # number of times the integer registers were read
system.cpu.num_int_register_writes                 12                       # number of times the integer registers were written
system.cpu.num_load_insts                           4                       # Number of load instructions
system.cpu.num_mem_refs                             4                       # number of memory refs
system.cpu.num_store_insts                          0                       # Number of store instructions
system.cpu.num_vec_alu_accesses                     0                       # Number of vector alu accesses
system.cpu.num_vec_insts                            0                       # number of vector instructions
system.cpu.num_vec_register_reads                   0                       # number of times the vector registers were read
system.cpu.num_vec_register_writes                  0                       # number of times the vector registers were written
system.cpu.op_class::No_OpClass                     0      0.00%      0.00% # Class of executed instruction
system.cpu.op_class::IntAlu                        16     80.00%     80.00% # Class of executed instruction
system.cpu.op_class::IntMult                        0      0.00%     80.00% # Class of executed instruction
system.cpu.op_class::IntDiv                         0      0.00%     80.00% # Class of executed instruction
system.cpu.op_class::FloatAdd                       0      0.00%     80.00% # Class of executed instruction
system.cpu.op_class::FloatCmp                       0      0.00%     80.00% # Class of executed instruction
system.cpu.op_class::FloatCvt                       0      0.00%     80.00% # Class of executed instruction
system.cpu.op_class::FloatMult                      0      0.00%     80.00% # Class of executed instruction
system.cpu.op_class::FloatMultAcc                   0      0.00%     80.00% # Class of executed instruction
system.cpu.op_class::FloatDiv                       0      0.00%     80.00% # Class of executed instruction
system.cpu.op_class::FloatMisc                      0      0.00%     80.00% # Class of executed instruction
system.cpu.op_class::FloatSqrt                      0      0.00%     80.00% # Class of executed instruction
system.cpu.op_class::SimdAdd                        0      0.00%     80.00% # Class of executed instruction
system.cpu.op_class::SimdAddAcc                     0      0.00%     80.00% # Class of executed instruction
system.cpu.op_class::SimdAlu                        0      0.00%     80.00% # Class of executed instruction
system.cpu.op_class::SimdCmp                        0      0.00%     80.00% # Class of executed instruction
system.cpu.op_class::SimdCvt                        0      0.00%     80.00% # Class of executed instruction
system.cpu.op_class::SimdMisc                       0      0.00%     80.00% # Class of executed instruction
system.cpu.op_class::SimdMult                       0      0.00%     80.00% # Class of executed instruction
system.cpu.op_class::SimdMultAcc                    0      0.00%     80.00% # Class of executed instruction
system.cpu.op_class::SimdShift                      0      0.00%     80.00% # Class of executed instruction
system.cpu.op_class::SimdShiftAcc                   0      0.00%     80.00% # Class of executed instruction
system.cpu.op_class::SimdDiv                        0      0.00%     80.00% # Class of executed instruction
system.cpu.op_class::SimdSqrt                       0      0.00%     80.00% # Class of executed instruction
system.cpu.op_class::SimdFloatAdd                   0      0.00%     80.00% # Class of executed instruction
system.cpu.op_class::SimdFloatAlu                   0      0.00%     80.00% # Class of executed instruction
system.cpu.op_class::SimdFloatCmp                   0      0.00%     80.00% # Class of executed instruction
system.cpu.op_class::SimdFloatCvt                   0      0.00%     80.00% # Class of executed instruction
system.cpu.op_class::SimdFloatDiv                   0      0.00%     80.00% # Class of executed instruction
system.cpu.op_class::SimdFloatMisc                  0      0.00%     80.00% # Class of executed instruction
system.cpu.op_class::SimdFloatMult                  0      0.00%     80.00% # Class of executed instruction
system.cpu.op_class::SimdFloatMultAcc               0      0.00%     80.00% # Class of executed instruction
system.cpu.op_class::SimdFloatSqrt                  0      0.00%     80.00% # Class of executed instruction
system.cpu.op_class::SimdReduceAdd                  0      0.00%     80.00% # Class of executed instruction
system.cpu.op_class::SimdReduceAlu                  0      0.00%     80.00% # Class of executed instruction
system.cpu.op_class::SimdReduceCmp                  0      0.00%     80.00% # Class of executed instruction
system.cpu.op_class::SimdFloatReduceAdd             0      0.00%     80.00% # Class of executed instruction
system.cpu.op_class::SimdFloatReduceCmp             0      0.00%     80.00% # Class of executed instruction
system.cpu.op_class::SimdAes                        0      0.00%     80.00% # Class of executed instruction
system.cpu.op_class::SimdAesMix                     0      0.00%     80.00% # Class of executed instruction
system.cpu.op_class::SimdSha1Hash                   0      0.00%     80.00% # Class of executed instruction
system.cpu.op_class::SimdSha1Hash2                  0      0.00%     80.00% # Class of executed instruction
system.cpu.op_class::SimdSha256Hash                 0      0.00%     80.00% # Class of executed instruction
system.cpu.op_class::SimdSha256Hash2                0      0.00%     80.00% # Class of executed instruction
system.cpu.op_class::SimdShaSigma2                  0      0.00%     80.00% # Class of executed instruction
system.cpu.op_class::SimdShaSigma3                  0      0.00%     80.00% # Class of executed instruction
system.cpu.op_class::SimdPredAlu                    0      0.00%     80.00% # Class of executed instruction
system.cpu.op_class::MemRead                        4     20.00%    100.00% # Class of executed instruction
system.cpu.op_class::MemWrite                       0      0.00%    100.00% # Class of executed instruction
system.cpu.op_class::FloatMemRead                   0      0.00%    100.00% # Class of executed instruction
system.cpu.op_class::FloatMemWrite                  0      0.00%    100.00% # Class of executed instruction
system.cpu.op_class::IprAccess                      0      0.00%    100.00% # Class of executed instruction
system.cpu.op_class::InstPrefetch                   0      0.00%    100.00% # Class of executed instruction
system.cpu.op_class::total                         20                       # Class of executed instruction
system.cpu.workload.numSyscalls                     0                       # Number of system calls
system.l2.MSHRs.leapFrogMisses                      5                       # number of false blocks from MSHR
system.membus.snoop_filter.hit_multi_requests            0                       # Number of requests hitting in the snoop filter with multiple (>1) holders of the requested data.
system.membus.snoop_filter.hit_multi_snoops            0                       # Number of snoops hitting in the snoop filter with multiple (>1) holders of the requested data.
system.membus.snoop_filter.hit_single_requests     12273858                       # Number of requests hitting in the snoop filter with a single holder of the requested data.
system.membus.snoop_filter.hit_single_snoops            0                       # Number of snoops hitting in the snoop filter with a single holder of the requested data.
system.membus.snoop_filter.tot_requests      24619379                       # Total number of requests made to the snoop filter.
system.membus.snoop_filter.tot_snoops               0                       # Total number of snoops made to the snoop filter.
system.switch_cpus.cc_regfile_reads        1622493132                       # number of cc regfile reads
system.switch_cpus.cc_regfile_writes       1237497204                       # number of cc regfile writes
system.switch_cpus.committedInsts          2000000003                       # Number of Instructions Simulated
system.switch_cpus.committedOps            2030196161                       # Number of Ops (including micro ops) Simulated
system.switch_cpus.cpi                       1.275318                       # CPI: Cycles Per Instruction
system.switch_cpus.cpi_total                 1.275318                       # CPI: Total CPI of All Threads
system.switch_cpus.idleCycles                  445441                       # Total number of cycles that the CPU has spent unscheduled due to idling
system.switch_cpus.iew.branchMispredicts     52504539                       # Number of branch mispredicts detected at execute
system.switch_cpus.iew.exec_branches        918332628                       # Number of branches executed
system.switch_cpus.iew.exec_nop                  4914                       # number of nop insts executed
system.switch_cpus.iew.exec_rate             1.333643                       # Inst execution rate
system.switch_cpus.iew.exec_refs           1229098204                       # number of memory reference insts executed
system.switch_cpus.iew.exec_stores          139463218                       # Number of stores executed
system.switch_cpus.iew.exec_swp                     0                       # number of swp insts executed
system.switch_cpus.iew.iewBlockCycles       209339592                       # Number of cycles IEW is blocking
system.switch_cpus.iew.iewDispLoadInsts     998878402                       # Number of dispatched load instructions
system.switch_cpus.iew.iewDispNonSpecInsts            0                       # Number of dispatched non-speculative instructions
system.switch_cpus.iew.iewDispSquashedInsts     14127231                       # Number of squashed instructions skipped by dispatch
system.switch_cpus.iew.iewDispStoreInsts    157152839                       # Number of dispatched store instructions
system.switch_cpus.iew.iewDispatchedInsts   3606268993                       # Number of instructions dispatched to IQ
system.switch_cpus.iew.iewExecLoadInsts    1089634986                       # Number of load instructions executed
system.switch_cpus.iew.iewExecSquashedInsts     68296343                       # Number of squashed instructions skipped in execute
system.switch_cpus.iew.iewExecutedInsts    3401637938                       # Number of executed instructions
system.switch_cpus.iew.iewIQFullEvents         499640                       # Number of times the IQ has become full, causing a stall
system.switch_cpus.iew.iewIdleCycles                0                       # Number of cycles IEW is idle
system.switch_cpus.iew.iewLSQFullEvents     197628291                       # Number of times the LSQ has become full, causing a stall
system.switch_cpus.iew.iewSquashCycles       50691045                       # Number of cycles IEW is squashing
system.switch_cpus.iew.iewUnblockCycles     198342504                       # Number of cycles IEW is unblocking
system.switch_cpus.iew.memOrderViolationEvents        25936                       # Number of memory order violations
system.switch_cpus.iew.predictedNotTakenIncorrect     29642873                       # Number of branches that were predicted not taken incorrectly
system.switch_cpus.iew.predictedTakenIncorrect     22861666                       # Number of branches that were predicted taken incorrectly
system.switch_cpus.iew.wb_consumers        2910515624                       # num instructions consuming a value
system.switch_cpus.iew.wb_count            3103756575                       # cumulative count of insts written-back
system.switch_cpus.iew.wb_fanout             0.519734                       # average fanout of values written-back
system.switch_cpus.iew.wb_producers        1512695000                       # num instructions producing a value
system.switch_cpus.iew.wb_rate               1.216856                       # insts written-back per cycle
system.switch_cpus.iew.wb_sent             3124501800                       # cumulative count of insts sent to commit
system.switch_cpus.int_regfile_reads       3728054560                       # number of integer regfile reads
system.switch_cpus.int_regfile_writes      2219132414                       # number of integer regfile writes
system.switch_cpus.ipc                       0.784118                       # IPC: Instructions Per Cycle
system.switch_cpus.ipc_total                 0.784118                       # IPC: Total IPC of All Threads
system.switch_cpus.iq.FU_type_0::No_OpClass           16      0.00%      0.00% # Type of FU issued
system.switch_cpus.iq.FU_type_0::IntAlu    2204722295     63.54%     63.54% # Type of FU issued
system.switch_cpus.iq.FU_type_0::IntMult      6747658      0.19%     63.73% # Type of FU issued
system.switch_cpus.iq.FU_type_0::IntDiv       2585077      0.07%     63.81% # Type of FU issued
system.switch_cpus.iq.FU_type_0::FloatAdd            0      0.00%     63.81% # Type of FU issued
system.switch_cpus.iq.FU_type_0::FloatCmp            0      0.00%     63.81% # Type of FU issued
system.switch_cpus.iq.FU_type_0::FloatCvt            0      0.00%     63.81% # Type of FU issued
system.switch_cpus.iq.FU_type_0::FloatMult            0      0.00%     63.81% # Type of FU issued
system.switch_cpus.iq.FU_type_0::FloatMultAcc            0      0.00%     63.81% # Type of FU issued
system.switch_cpus.iq.FU_type_0::FloatDiv            0      0.00%     63.81% # Type of FU issued
system.switch_cpus.iq.FU_type_0::FloatMisc            0      0.00%     63.81% # Type of FU issued
system.switch_cpus.iq.FU_type_0::FloatSqrt            0      0.00%     63.81% # Type of FU issued
system.switch_cpus.iq.FU_type_0::SimdAdd            0      0.00%     63.81% # Type of FU issued
system.switch_cpus.iq.FU_type_0::SimdAddAcc            0      0.00%     63.81% # Type of FU issued
system.switch_cpus.iq.FU_type_0::SimdAlu            0      0.00%     63.81% # Type of FU issued
system.switch_cpus.iq.FU_type_0::SimdCmp            0      0.00%     63.81% # Type of FU issued
system.switch_cpus.iq.FU_type_0::SimdCvt            0      0.00%     63.81% # Type of FU issued
system.switch_cpus.iq.FU_type_0::SimdMisc            0      0.00%     63.81% # Type of FU issued
system.switch_cpus.iq.FU_type_0::SimdMult            0      0.00%     63.81% # Type of FU issued
system.switch_cpus.iq.FU_type_0::SimdMultAcc            0      0.00%     63.81% # Type of FU issued
system.switch_cpus.iq.FU_type_0::SimdShift            0      0.00%     63.81% # Type of FU issued
system.switch_cpus.iq.FU_type_0::SimdShiftAcc            0      0.00%     63.81% # Type of FU issued
system.switch_cpus.iq.FU_type_0::SimdDiv            0      0.00%     63.81% # Type of FU issued
system.switch_cpus.iq.FU_type_0::SimdSqrt            0      0.00%     63.81% # Type of FU issued
system.switch_cpus.iq.FU_type_0::SimdFloatAdd            0      0.00%     63.81% # Type of FU issued
system.switch_cpus.iq.FU_type_0::SimdFloatAlu            0      0.00%     63.81% # Type of FU issued
system.switch_cpus.iq.FU_type_0::SimdFloatCmp            0      0.00%     63.81% # Type of FU issued
system.switch_cpus.iq.FU_type_0::SimdFloatCvt            0      0.00%     63.81% # Type of FU issued
system.switch_cpus.iq.FU_type_0::SimdFloatDiv            0      0.00%     63.81% # Type of FU issued
system.switch_cpus.iq.FU_type_0::SimdFloatMisc            0      0.00%     63.81% # Type of FU issued
system.switch_cpus.iq.FU_type_0::SimdFloatMult            0      0.00%     63.81% # Type of FU issued
system.switch_cpus.iq.FU_type_0::SimdFloatMultAcc            0      0.00%     63.81% # Type of FU issued
system.switch_cpus.iq.FU_type_0::SimdFloatSqrt            0      0.00%     63.81% # Type of FU issued
system.switch_cpus.iq.FU_type_0::SimdReduceAdd            0      0.00%     63.81% # Type of FU issued
system.switch_cpus.iq.FU_type_0::SimdReduceAlu            0      0.00%     63.81% # Type of FU issued
system.switch_cpus.iq.FU_type_0::SimdReduceCmp            0      0.00%     63.81% # Type of FU issued
system.switch_cpus.iq.FU_type_0::SimdFloatReduceAdd            0      0.00%     63.81% # Type of FU issued
system.switch_cpus.iq.FU_type_0::SimdFloatReduceCmp            0      0.00%     63.81% # Type of FU issued
system.switch_cpus.iq.FU_type_0::SimdAes            0      0.00%     63.81% # Type of FU issued
system.switch_cpus.iq.FU_type_0::SimdAesMix            0      0.00%     63.81% # Type of FU issued
system.switch_cpus.iq.FU_type_0::SimdSha1Hash            0      0.00%     63.81% # Type of FU issued
system.switch_cpus.iq.FU_type_0::SimdSha1Hash2            0      0.00%     63.81% # Type of FU issued
system.switch_cpus.iq.FU_type_0::SimdSha256Hash            0      0.00%     63.81% # Type of FU issued
system.switch_cpus.iq.FU_type_0::SimdSha256Hash2            0      0.00%     63.81% # Type of FU issued
system.switch_cpus.iq.FU_type_0::SimdShaSigma2            0      0.00%     63.81% # Type of FU issued
system.switch_cpus.iq.FU_type_0::SimdShaSigma3            0      0.00%     63.81% # Type of FU issued
system.switch_cpus.iq.FU_type_0::SimdPredAlu            0      0.00%     63.81% # Type of FU issued
system.switch_cpus.iq.FU_type_0::MemRead   1111415760     32.03%     95.84% # Type of FU issued
system.switch_cpus.iq.FU_type_0::MemWrite    144463475      4.16%    100.00% # Type of FU issued
system.switch_cpus.iq.FU_type_0::FloatMemRead            0      0.00%    100.00% # Type of FU issued
system.switch_cpus.iq.FU_type_0::FloatMemWrite            0      0.00%    100.00% # Type of FU issued
system.switch_cpus.iq.FU_type_0::IprAccess            0      0.00%    100.00% # Type of FU issued
system.switch_cpus.iq.FU_type_0::InstPrefetch            0      0.00%    100.00% # Type of FU issued
system.switch_cpus.iq.FU_type_0::total     3469934281                       # Type of FU issued
system.switch_cpus.iq.fp_alu_accesses               0                       # Number of floating point alu accesses
system.switch_cpus.iq.fp_inst_queue_reads            0                       # Number of floating instruction queue reads
system.switch_cpus.iq.fp_inst_queue_wakeup_accesses            0                       # Number of floating instruction queue wakeup accesses
system.switch_cpus.iq.fp_inst_queue_writes            0                       # Number of floating instruction queue writes
system.switch_cpus.iq.fu_busy_cnt            49976078                       # FU busy when requested
system.switch_cpus.iq.fu_busy_rate           0.014403                       # FU busy rate (busy events/executed inst)
system.switch_cpus.iq.fu_full::No_OpClass            0      0.00%      0.00% # attempts to use FU when none available
system.switch_cpus.iq.fu_full::IntAlu         3339092      6.68%      6.68% # attempts to use FU when none available
system.switch_cpus.iq.fu_full::IntMult          91622      0.18%      6.86% # attempts to use FU when none available
system.switch_cpus.iq.fu_full::IntDiv               0      0.00%      6.86% # attempts to use FU when none available
system.switch_cpus.iq.fu_full::FloatAdd             0      0.00%      6.86% # attempts to use FU when none available
system.switch_cpus.iq.fu_full::FloatCmp             0      0.00%      6.86% # attempts to use FU when none available
system.switch_cpus.iq.fu_full::FloatCvt             0      0.00%      6.86% # attempts to use FU when none available
system.switch_cpus.iq.fu_full::FloatMult            0      0.00%      6.86% # attempts to use FU when none available
system.switch_cpus.iq.fu_full::FloatMultAcc            0      0.00%      6.86% # attempts to use FU when none available
system.switch_cpus.iq.fu_full::FloatDiv             0      0.00%      6.86% # attempts to use FU when none available
system.switch_cpus.iq.fu_full::FloatMisc            0      0.00%      6.86% # attempts to use FU when none available
system.switch_cpus.iq.fu_full::FloatSqrt            0      0.00%      6.86% # attempts to use FU when none available
system.switch_cpus.iq.fu_full::SimdAdd              0      0.00%      6.86% # attempts to use FU when none available
system.switch_cpus.iq.fu_full::SimdAddAcc            0      0.00%      6.86% # attempts to use FU when none available
system.switch_cpus.iq.fu_full::SimdAlu              0      0.00%      6.86% # attempts to use FU when none available
system.switch_cpus.iq.fu_full::SimdCmp              0      0.00%      6.86% # attempts to use FU when none available
system.switch_cpus.iq.fu_full::SimdCvt              0      0.00%      6.86% # attempts to use FU when none available
system.switch_cpus.iq.fu_full::SimdMisc             0      0.00%      6.86% # attempts to use FU when none available
system.switch_cpus.iq.fu_full::SimdMult             0      0.00%      6.86% # attempts to use FU when none available
system.switch_cpus.iq.fu_full::SimdMultAcc            0      0.00%      6.86% # attempts to use FU when none available
system.switch_cpus.iq.fu_full::SimdShift            0      0.00%      6.86% # attempts to use FU when none available
system.switch_cpus.iq.fu_full::SimdShiftAcc            0      0.00%      6.86% # attempts to use FU when none available
system.switch_cpus.iq.fu_full::SimdDiv              0      0.00%      6.86% # attempts to use FU when none available
system.switch_cpus.iq.fu_full::SimdSqrt             0      0.00%      6.86% # attempts to use FU when none available
system.switch_cpus.iq.fu_full::SimdFloatAdd            0      0.00%      6.86% # attempts to use FU when none available
system.switch_cpus.iq.fu_full::SimdFloatAlu            0      0.00%      6.86% # attempts to use FU when none available
system.switch_cpus.iq.fu_full::SimdFloatCmp            0      0.00%      6.86% # attempts to use FU when none available
system.switch_cpus.iq.fu_full::SimdFloatCvt            0      0.00%      6.86% # attempts to use FU when none available
system.switch_cpus.iq.fu_full::SimdFloatDiv            0      0.00%      6.86% # attempts to use FU when none available
system.switch_cpus.iq.fu_full::SimdFloatMisc            0      0.00%      6.86% # attempts to use FU when none available
system.switch_cpus.iq.fu_full::SimdFloatMult            0      0.00%      6.86% # attempts to use FU when none available
system.switch_cpus.iq.fu_full::SimdFloatMultAcc            0      0.00%      6.86% # attempts to use FU when none available
system.switch_cpus.iq.fu_full::SimdFloatSqrt            0      0.00%      6.86% # attempts to use FU when none available
system.switch_cpus.iq.fu_full::SimdReduceAdd            0      0.00%      6.86% # attempts to use FU when none available
system.switch_cpus.iq.fu_full::SimdReduceAlu            0      0.00%      6.86% # attempts to use FU when none available
system.switch_cpus.iq.fu_full::SimdReduceCmp            0      0.00%      6.86% # attempts to use FU when none available
system.switch_cpus.iq.fu_full::SimdFloatReduceAdd            0      0.00%      6.86% # attempts to use FU when none available
system.switch_cpus.iq.fu_full::SimdFloatReduceCmp            0      0.00%      6.86% # attempts to use FU when none available
system.switch_cpus.iq.fu_full::SimdAes              0      0.00%      6.86% # attempts to use FU when none available
system.switch_cpus.iq.fu_full::SimdAesMix            0      0.00%      6.86% # attempts to use FU when none available
system.switch_cpus.iq.fu_full::SimdSha1Hash            0      0.00%      6.86% # attempts to use FU when none available
system.switch_cpus.iq.fu_full::SimdSha1Hash2            0      0.00%      6.86% # attempts to use FU when none available
system.switch_cpus.iq.fu_full::SimdSha256Hash            0      0.00%      6.86% # attempts to use FU when none available
system.switch_cpus.iq.fu_full::SimdSha256Hash2            0      0.00%      6.86% # attempts to use FU when none available
system.switch_cpus.iq.fu_full::SimdShaSigma2            0      0.00%      6.86% # attempts to use FU when none available
system.switch_cpus.iq.fu_full::SimdShaSigma3            0      0.00%      6.86% # attempts to use FU when none available
system.switch_cpus.iq.fu_full::SimdPredAlu            0      0.00%      6.86% # attempts to use FU when none available
system.switch_cpus.iq.fu_full::MemRead       42898408     85.84%     92.70% # attempts to use FU when none available
system.switch_cpus.iq.fu_full::MemWrite       3646956      7.30%    100.00% # attempts to use FU when none available
system.switch_cpus.iq.fu_full::FloatMemRead            0      0.00%    100.00% # attempts to use FU when none available
system.switch_cpus.iq.fu_full::FloatMemWrite            0      0.00%    100.00% # attempts to use FU when none available
system.switch_cpus.iq.fu_full::IprAccess            0      0.00%    100.00% # attempts to use FU when none available
system.switch_cpus.iq.fu_full::InstPrefetch            0      0.00%    100.00% # attempts to use FU when none available
system.switch_cpus.iq.int_alu_accesses     3519910185                       # Number of integer alu accesses
system.switch_cpus.iq.int_inst_queue_reads   9544592780                       # Number of integer instruction queue reads
system.switch_cpus.iq.int_inst_queue_wakeup_accesses   3103756473                       # Number of integer instruction queue wakeup accesses
system.switch_cpus.iq.int_inst_queue_writes   5182356401                       # Number of integer instruction queue writes
system.switch_cpus.iq.iqInstsAdded         3606264079                       # Number of instructions added to the IQ (excludes non-spec)
system.switch_cpus.iq.iqInstsIssued        3469934281                       # Number of instructions issued
system.switch_cpus.iq.iqSquashedInstsExamined   1576067912                       # Number of squashed instructions iterated over during squash; mainly for profiling
system.switch_cpus.iq.iqSquashedInstsIssued      4557993                       # Number of squashed instructions issued
system.switch_cpus.iq.iqSquashedOperandsExamined    875717479                       # Number of squashed operands that are examined and possibly removed from graph
system.switch_cpus.iq.issued_per_cycle::samples   2550190463                       # Number of insts issued each cycle
system.switch_cpus.iq.issued_per_cycle::mean     1.360657                       # Number of insts issued each cycle
system.switch_cpus.iq.issued_per_cycle::stdev     1.734084                       # Number of insts issued each cycle
system.switch_cpus.iq.issued_per_cycle::underflows            0      0.00%      0.00% # Number of insts issued each cycle
system.switch_cpus.iq.issued_per_cycle::0   1201056398     47.10%     47.10% # Number of insts issued each cycle
system.switch_cpus.iq.issued_per_cycle::1    434695256     17.05%     64.14% # Number of insts issued each cycle
system.switch_cpus.iq.issued_per_cycle::2    348853507     13.68%     77.82% # Number of insts issued each cycle
system.switch_cpus.iq.issued_per_cycle::3    228137649      8.95%     86.77% # Number of insts issued each cycle
system.switch_cpus.iq.issued_per_cycle::4    167527881      6.57%     93.34% # Number of insts issued each cycle
system.switch_cpus.iq.issued_per_cycle::5     83296967      3.27%     96.60% # Number of insts issued each cycle
system.switch_cpus.iq.issued_per_cycle::6     48373869      1.90%     98.50% # Number of insts issued each cycle
system.switch_cpus.iq.issued_per_cycle::7     29711997      1.17%     99.67% # Number of insts issued each cycle
system.switch_cpus.iq.issued_per_cycle::8      8536939      0.33%    100.00% # Number of insts issued each cycle
system.switch_cpus.iq.issued_per_cycle::overflows            0      0.00%    100.00% # Number of insts issued each cycle
system.switch_cpus.iq.issued_per_cycle::min_value            0                       # Number of insts issued each cycle
system.switch_cpus.iq.issued_per_cycle::max_value            8                       # Number of insts issued each cycle
system.switch_cpus.iq.issued_per_cycle::total   2550190463                       # Number of insts issued each cycle
system.switch_cpus.iq.rate                   1.360419                       # Inst issue rate
system.switch_cpus.iq.vec_alu_accesses            158                       # Number of vector alu accesses
system.switch_cpus.iq.vec_inst_queue_reads          316                       # Number of vector instruction queue reads
system.switch_cpus.iq.vec_inst_queue_wakeup_accesses          102                       # Number of vector instruction queue wakeup accesses
system.switch_cpus.iq.vec_inst_queue_writes          410                       # Number of vector instruction queue writes
system.switch_cpus.memDep0.conflictingLoads     57123307                       # Number of conflicting loads.
system.switch_cpus.memDep0.conflictingStores     38633712                       # Number of conflicting stores.
system.switch_cpus.memDep0.insertedLoads    998878402                       # Number of loads inserted to the mem dependence unit.
system.switch_cpus.memDep0.insertedStores    157152839                       # Number of stores inserted to the mem dependence unit.
system.switch_cpus.misc_regfile_reads     10767120054                       # number of misc regfile reads
system.switch_cpus.misc_regfile_writes              1                       # number of misc regfile writes
system.switch_cpus.numCycles               2550635904                       # number of cpu cycles simulated
system.switch_cpus.numWorkItemsCompleted            0                       # number of work items this cpu completed
system.switch_cpus.numWorkItemsStarted              0                       # number of work items this cpu started
system.switch_cpus.timesIdled                   33658                       # Number of times that the entire CPU went into an idle state and unscheduled itself
system.switch_cpus.vec_regfile_reads               54                       # number of vector regfile reads
system.switch_cpus.vec_regfile_writes              98                       # number of vector regfile writes
system.tol2bus.snoop_filter.hit_multi_requests         3263                       # Number of requests hitting in the snoop filter with multiple (>1) holders of the requested data.
system.tol2bus.snoop_filter.hit_multi_snoops           21                       # Number of snoops hitting in the snoop filter with multiple (>1) holders of the requested data.
system.tol2bus.snoop_filter.hit_single_requests    104214219                       # Number of requests hitting in the snoop filter with a single holder of the requested data.
system.tol2bus.snoop_filter.hit_single_snoops      4962477                       # Number of snoops hitting in the snoop filter with a single holder of the requested data.
system.tol2bus.snoop_filter.tot_requests    204814429                       # Total number of requests made to the snoop filter.
system.tol2bus.snoop_filter.tot_snoops        4962498                       # Total number of snoops made to the snoop filter.
system.clk_domain.clock                          1000                       # Clock period in ticks
system.cpu.dcache.demand_hits::.switch_cpus.data    783011860                       # number of demand (read+write) hits
system.cpu.dcache.demand_hits::total        783011860                       # number of demand (read+write) hits
system.cpu.dcache.overall_hits::.switch_cpus.data    783011860                       # number of overall hits
system.cpu.dcache.overall_hits::total       783011860                       # number of overall hits
system.cpu.dcache.demand_misses::.cpu.data            4                       # number of demand (read+write) misses
system.cpu.dcache.demand_misses::.switch_cpus.data    150753276                       # number of demand (read+write) misses
system.cpu.dcache.demand_misses::total      150753280                       # number of demand (read+write) misses
system.cpu.dcache.overall_misses::.cpu.data            4                       # number of overall misses
system.cpu.dcache.overall_misses::.switch_cpus.data    150753276                       # number of overall misses
system.cpu.dcache.overall_misses::total     150753280                       # number of overall misses
system.cpu.dcache.demand_miss_latency::.switch_cpus.data 2649702416404                       # number of demand (read+write) miss cycles
system.cpu.dcache.demand_miss_latency::total 2649702416404                       # number of demand (read+write) miss cycles
system.cpu.dcache.overall_miss_latency::.switch_cpus.data 2649702416404                       # number of overall miss cycles
system.cpu.dcache.overall_miss_latency::total 2649702416404                       # number of overall miss cycles
system.cpu.dcache.demand_accesses::.cpu.data            4                       # number of demand (read+write) accesses
system.cpu.dcache.demand_accesses::.switch_cpus.data    933765136                       # number of demand (read+write) accesses
system.cpu.dcache.demand_accesses::total    933765140                       # number of demand (read+write) accesses
system.cpu.dcache.overall_accesses::.cpu.data            4                       # number of overall (read+write) accesses
system.cpu.dcache.overall_accesses::.switch_cpus.data    933765136                       # number of overall (read+write) accesses
system.cpu.dcache.overall_accesses::total    933765140                       # number of overall (read+write) accesses
system.cpu.dcache.demand_miss_rate::.cpu.data            1                       # miss rate for demand accesses
system.cpu.dcache.demand_miss_rate::.switch_cpus.data     0.161447                       # miss rate for demand accesses
system.cpu.dcache.demand_miss_rate::total     0.161447                       # miss rate for demand accesses
system.cpu.dcache.overall_miss_rate::.cpu.data            1                       # miss rate for overall accesses
system.cpu.dcache.overall_miss_rate::.switch_cpus.data     0.161447                       # miss rate for overall accesses
system.cpu.dcache.overall_miss_rate::total     0.161447                       # miss rate for overall accesses
system.cpu.dcache.demand_avg_miss_latency::.switch_cpus.data 17576.416823                       # average overall miss latency
system.cpu.dcache.demand_avg_miss_latency::total 17576.416357                       # average overall miss latency
system.cpu.dcache.overall_avg_miss_latency::.switch_cpus.data 17576.416823                       # average overall miss latency
system.cpu.dcache.overall_avg_miss_latency::total 17576.416357                       # average overall miss latency
system.cpu.dcache.blocked_cycles::no_mshrs    392827125                       # number of cycles access was blocked
system.cpu.dcache.blocked_cycles::no_targets          486                       # number of cycles access was blocked
system.cpu.dcache.blocked::no_mshrs          38000729                       # number of cycles access was blocked
system.cpu.dcache.blocked::no_targets               4                       # number of cycles access was blocked
system.cpu.dcache.avg_blocked_cycles::no_mshrs    10.337358                       # average number of cycles each access was blocked
system.cpu.dcache.avg_blocked_cycles::no_targets   121.500000                       # average number of cycles each access was blocked
system.cpu.dcache.ghost_timestamp_misses       529448                       # number of times timestamp policy causes a block to be inaccessible
system.cpu.dcache.ghost_commits              60789228                       # number of cache lines moved from ghost to main
system.cpu.dcache.same_leapfrogs               942430                       # number of times leapfrogging occurs with a shared MSHR request
system.cpu.dcache.writebacks::.writebacks    131027210                       # number of writebacks
system.cpu.dcache.writebacks::total         131027210                       # number of writebacks
system.cpu.dcache.demand_mshr_hits::.switch_cpus.data     46883155                       # number of demand (read+write) MSHR hits
system.cpu.dcache.demand_mshr_hits::total     46883155                       # number of demand (read+write) MSHR hits
system.cpu.dcache.overall_mshr_hits::.switch_cpus.data     46883155                       # number of overall MSHR hits
system.cpu.dcache.overall_mshr_hits::total     46883155                       # number of overall MSHR hits
system.cpu.dcache.demand_mshr_misses::.switch_cpus.data    103870121                       # number of demand (read+write) MSHR misses
system.cpu.dcache.demand_mshr_misses::total    103870121                       # number of demand (read+write) MSHR misses
system.cpu.dcache.overall_mshr_misses::.switch_cpus.data    103870121                       # number of overall MSHR misses
system.cpu.dcache.overall_mshr_misses::total    103870121                       # number of overall MSHR misses
system.cpu.dcache.demand_mshr_miss_latency::.switch_cpus.data 1889567689867                       # number of demand (read+write) MSHR miss cycles
system.cpu.dcache.demand_mshr_miss_latency::total 1889567689867                       # number of demand (read+write) MSHR miss cycles
system.cpu.dcache.overall_mshr_miss_latency::.switch_cpus.data 1889567689867                       # number of overall MSHR miss cycles
system.cpu.dcache.overall_mshr_miss_latency::total 1889567689867                       # number of overall MSHR miss cycles
system.cpu.dcache.demand_mshr_miss_rate::.switch_cpus.data     0.111238                       # mshr miss rate for demand accesses
system.cpu.dcache.demand_mshr_miss_rate::total     0.111238                       # mshr miss rate for demand accesses
system.cpu.dcache.overall_mshr_miss_rate::.switch_cpus.data     0.111238                       # mshr miss rate for overall accesses
system.cpu.dcache.overall_mshr_miss_rate::total     0.111238                       # mshr miss rate for overall accesses
system.cpu.dcache.demand_avg_mshr_miss_latency::.switch_cpus.data 18191.638478                       # average overall mshr miss latency
system.cpu.dcache.demand_avg_mshr_miss_latency::total 18191.638478                       # average overall mshr miss latency
system.cpu.dcache.overall_avg_mshr_miss_latency::.switch_cpus.data 18191.638478                       # average overall mshr miss latency
system.cpu.dcache.overall_avg_mshr_miss_latency::total 18191.638478                       # average overall mshr miss latency
system.cpu.dcache.replacements               70554243                       # number of replacements
system.cpu.dcache.ReadReq_hits::.switch_cpus.data    708159072                       # number of ReadReq hits
system.cpu.dcache.ReadReq_hits::total       708159072                       # number of ReadReq hits
system.cpu.dcache.ReadReq_misses::.cpu.data            4                       # number of ReadReq misses
system.cpu.dcache.ReadReq_misses::.switch_cpus.data    122752771                       # number of ReadReq misses
system.cpu.dcache.ReadReq_misses::total     122752775                       # number of ReadReq misses
system.cpu.dcache.ReadReq_miss_latency::.switch_cpus.data 2232656391500                       # number of ReadReq miss cycles
system.cpu.dcache.ReadReq_miss_latency::total 2232656391500                       # number of ReadReq miss cycles
system.cpu.dcache.ReadReq_accesses::.cpu.data            4                       # number of ReadReq accesses(hits+misses)
system.cpu.dcache.ReadReq_accesses::.switch_cpus.data    830911843                       # number of ReadReq accesses(hits+misses)
system.cpu.dcache.ReadReq_accesses::total    830911847                       # number of ReadReq accesses(hits+misses)
system.cpu.dcache.ReadReq_miss_rate::.cpu.data            1                       # miss rate for ReadReq accesses
system.cpu.dcache.ReadReq_miss_rate::.switch_cpus.data     0.147733                       # miss rate for ReadReq accesses
system.cpu.dcache.ReadReq_miss_rate::total     0.147733                       # miss rate for ReadReq accesses
system.cpu.dcache.ReadReq_avg_miss_latency::.switch_cpus.data 18188.236187                       # average ReadReq miss latency
system.cpu.dcache.ReadReq_avg_miss_latency::total 18188.235594                       # average ReadReq miss latency
system.cpu.dcache.ReadReq_mshr_hits::.switch_cpus.data     30791672                       # number of ReadReq MSHR hits
system.cpu.dcache.ReadReq_mshr_hits::total     30791672                       # number of ReadReq MSHR hits
system.cpu.dcache.ReadReq_mshr_misses::.switch_cpus.data     91961099                       # number of ReadReq MSHR misses
system.cpu.dcache.ReadReq_mshr_misses::total     91961099                       # number of ReadReq MSHR misses
system.cpu.dcache.ReadReq_mshr_miss_latency::.switch_cpus.data 1705488786000                       # number of ReadReq MSHR miss cycles
system.cpu.dcache.ReadReq_mshr_miss_latency::total 1705488786000                       # number of ReadReq MSHR miss cycles
system.cpu.dcache.ReadReq_mshr_miss_rate::.switch_cpus.data     0.110675                       # mshr miss rate for ReadReq accesses
system.cpu.dcache.ReadReq_mshr_miss_rate::total     0.110675                       # mshr miss rate for ReadReq accesses
system.cpu.dcache.ReadReq_avg_mshr_miss_latency::.switch_cpus.data 18545.763421                       # average ReadReq mshr miss latency
system.cpu.dcache.ReadReq_avg_mshr_miss_latency::total 18545.763421                       # average ReadReq mshr miss latency
system.cpu.dcache.WriteReq_hits::.switch_cpus.data     74852788                       # number of WriteReq hits
system.cpu.dcache.WriteReq_hits::total       74852788                       # number of WriteReq hits
system.cpu.dcache.WriteReq_misses::.switch_cpus.data     28000505                       # number of WriteReq misses
system.cpu.dcache.WriteReq_misses::total     28000505                       # number of WriteReq misses
system.cpu.dcache.WriteReq_miss_latency::.switch_cpus.data 417046024904                       # number of WriteReq miss cycles
system.cpu.dcache.WriteReq_miss_latency::total 417046024904                       # number of WriteReq miss cycles
system.cpu.dcache.WriteReq_accesses::.switch_cpus.data    102853293                       # number of WriteReq accesses(hits+misses)
system.cpu.dcache.WriteReq_accesses::total    102853293                       # number of WriteReq accesses(hits+misses)
system.cpu.dcache.WriteReq_miss_rate::.switch_cpus.data     0.272237                       # miss rate for WriteReq accesses
system.cpu.dcache.WriteReq_miss_rate::total     0.272237                       # miss rate for WriteReq accesses
system.cpu.dcache.WriteReq_avg_miss_latency::.switch_cpus.data 14894.232261                       # average WriteReq miss latency
system.cpu.dcache.WriteReq_avg_miss_latency::total 14894.232261                       # average WriteReq miss latency
system.cpu.dcache.WriteReq_mshr_hits::.switch_cpus.data     16091483                       # number of WriteReq MSHR hits
system.cpu.dcache.WriteReq_mshr_hits::total     16091483                       # number of WriteReq MSHR hits
system.cpu.dcache.WriteReq_mshr_misses::.switch_cpus.data     11909022                       # number of WriteReq MSHR misses
system.cpu.dcache.WriteReq_mshr_misses::total     11909022                       # number of WriteReq MSHR misses
system.cpu.dcache.WriteReq_mshr_miss_latency::.switch_cpus.data 184078903867                       # number of WriteReq MSHR miss cycles
system.cpu.dcache.WriteReq_mshr_miss_latency::total 184078903867                       # number of WriteReq MSHR miss cycles
system.cpu.dcache.WriteReq_mshr_miss_rate::.switch_cpus.data     0.115786                       # mshr miss rate for WriteReq accesses
system.cpu.dcache.WriteReq_mshr_miss_rate::total     0.115786                       # mshr miss rate for WriteReq accesses
system.cpu.dcache.WriteReq_avg_mshr_miss_latency::.switch_cpus.data 15457.096634                       # average WriteReq mshr miss latency
system.cpu.dcache.WriteReq_avg_mshr_miss_latency::total 15457.096634                       # average WriteReq mshr miss latency
system.cpu.dcache.ghosttags.tagsinuse    -34849117.700632                       # Cycle average of tags in use
system.cpu.dcache.ghosttags.total_refs              1                       # Total number of references to valid blocks.
system.cpu.dcache.ghosttags.sampled_refs            1                       # Sample count of references to valid blocks.
system.cpu.dcache.ghosttags.avg_refs                1                       # Average number of references to valid blocks.
system.cpu.dcache.ghosttags.warmup_cycle 5120492537500                       # Cycle when the warmup percentage was hit.
system.cpu.dcache.ghosttags.occ_blocks::.switch_cpus.data 45521747.619937                       # Average occupied blocks per requestor
system.cpu.dcache.ghosttags.occ_percent::.switch_cpus.data 1422554.613123                       # Average percentage of cache occupancy
system.cpu.dcache.ghosttags.occ_percent::total 1422554.613123                       # Average percentage of cache occupancy
system.cpu.dcache.ghosttags.occ_task_id_blocks::1024            1                       # Occupied blocks per task id
system.cpu.dcache.ghosttags.age_task_id_blocks_1024::0            1                       # Occupied blocks per task id
system.cpu.dcache.ghosttags.occ_task_id_percent::1024     0.031250                       # Percentage of cache occupancy per task id
system.cpu.dcache.ghosttags.tag_accesses    422170142                       # Number of tag accesses
system.cpu.dcache.ghosttags.data_accesses    422170142                       # Number of data accesses
system.cpu.dcache.ghosttags.repl_invalid            0                       # Number of initial replacements
system.cpu.dcache.ghosttags.repl_valid_tag            0                       # Number of local replacements
system.cpu.dcache.ghosttags.repl_valid_data            0                       # Number of global replacements
system.cpu.dcache.ghosttags.power_state.pwrStateResidencyTicks::UNDEFINED 6395810346500                       # Cumulative time (in ticks) in various power states
system.cpu.dcache.power_state.pwrStateResidencyTicks::UNDEFINED 6395810346500                       # Cumulative time (in ticks) in various power states
system.cpu.dcache.tags.tagsinuse         -45255737.197795                       # Cycle average of tags in use
system.cpu.dcache.tags.total_refs           950858199                       # Total number of references to valid blocks.
system.cpu.dcache.tags.sampled_refs         160656659                       # Sample count of references to valid blocks.
system.cpu.dcache.tags.avg_refs              5.918573                       # Average number of references to valid blocks.
system.cpu.dcache.tags.warmup_cycle      5120492387000                       # Cycle when the warmup percentage was hit.
system.cpu.dcache.tags.occ_blocks::.cpu.data     0.000141                       # Average occupied blocks per requestor
system.cpu.dcache.tags.occ_blocks::.switch_cpus.data -45255737.197936                       # Average occupied blocks per requestor
system.cpu.dcache.tags.occ_percent::.cpu.data     0.000000                       # Average percentage of cache occupancy
system.cpu.dcache.tags.occ_percent::.switch_cpus.data -88390.111715                       # Average percentage of cache occupancy
system.cpu.dcache.tags.occ_percent::total -88390.111714                       # Average percentage of cache occupancy
system.cpu.dcache.tags.occ_task_id_blocks::1024          512                       # Occupied blocks per task id
system.cpu.dcache.tags.age_task_id_blocks_1024::0          498                       # Occupied blocks per task id
system.cpu.dcache.tags.age_task_id_blocks_1024::1           13                       # Occupied blocks per task id
system.cpu.dcache.tags.age_task_id_blocks_1024::2            1                       # Occupied blocks per task id
system.cpu.dcache.tags.occ_task_id_percent::1024            1                       # Percentage of cache occupancy per task id
system.cpu.dcache.tags.tag_accesses        7540359614                       # Number of tag accesses
system.cpu.dcache.tags.data_accesses       7540359614                       # Number of data accesses
system.cpu.dcache.tags.repl_invalid                 0                       # Number of initial replacements
system.cpu.dcache.tags.repl_valid_tag               0                       # Number of local replacements
system.cpu.dcache.tags.repl_valid_data              0                       # Number of global replacements
system.cpu.dcache.tags.power_state.pwrStateResidencyTicks::UNDEFINED 6395810346500                       # Cumulative time (in ticks) in various power states
system.cpu.dtb.instHits                             0                       # ITB inst hits
system.cpu.dtb.instMisses                           0                       # ITB inst misses
system.cpu.dtb.readHits                             0                       # DTB read hits
system.cpu.dtb.readMisses                           0                       # DTB read misses
system.cpu.dtb.writeHits                            0                       # DTB write hits
system.cpu.dtb.writeMisses                          0                       # DTB write misses
system.cpu.dtb.inserts                              0                       # Number of times an entry is inserted into the TLB
system.cpu.dtb.flushTlb                             2                       # Number of times complete TLB was flushed
system.cpu.dtb.flushTlbMva                          0                       # Number of times TLB was flushed by MVA
system.cpu.dtb.flushTlbMvaAsid                      0                       # Number of times TLB was flushed by MVA & ASID
system.cpu.dtb.flushTlbAsid                         0                       # Number of times TLB was flushed by ASID
system.cpu.dtb.flushedEntries                       0                       # Number of entries that have been flushed from TLB
system.cpu.dtb.alignFaults                          0                       # Number of TLB faults due to alignment restrictions
system.cpu.dtb.prefetchFaults                       0                       # Number of TLB faults due to prefetch
system.cpu.dtb.domainFaults                         0                       # Number of TLB faults due to domain restrictions
system.cpu.dtb.permsFaults                          0                       # Number of TLB faults due to permissions restrictions
system.cpu.dtb.readAccesses                         0                       # DTB read accesses
system.cpu.dtb.writeAccesses                        0                       # DTB write accesses
system.cpu.dtb.instAccesses                         0                       # ITB inst accesses
system.cpu.dtb.hits                                 0                       # Total TLB (inst and data) hits
system.cpu.dtb.misses                               0                       # Total TLB (inst and data) misses
system.cpu.dtb.accesses                             0                       # Total TLB (inst and data) accesses
system.cpu.dtb.stage2_mmu.stage2_tlb.instHits            0                       # ITB inst hits
system.cpu.dtb.stage2_mmu.stage2_tlb.instMisses            0                       # ITB inst misses
system.cpu.dtb.stage2_mmu.stage2_tlb.readHits            0                       # DTB read hits
system.cpu.dtb.stage2_mmu.stage2_tlb.readMisses            0                       # DTB read misses
system.cpu.dtb.stage2_mmu.stage2_tlb.writeHits            0                       # DTB write hits
system.cpu.dtb.stage2_mmu.stage2_tlb.writeMisses            0                       # DTB write misses
system.cpu.dtb.stage2_mmu.stage2_tlb.inserts            0                       # Number of times an entry is inserted into the TLB
system.cpu.dtb.stage2_mmu.stage2_tlb.flushTlb            0                       # Number of times complete TLB was flushed
system.cpu.dtb.stage2_mmu.stage2_tlb.flushTlbMva            0                       # Number of times TLB was flushed by MVA
system.cpu.dtb.stage2_mmu.stage2_tlb.flushTlbMvaAsid            0                       # Number of times TLB was flushed by MVA & ASID
system.cpu.dtb.stage2_mmu.stage2_tlb.flushTlbAsid            0                       # Number of times TLB was flushed by ASID
system.cpu.dtb.stage2_mmu.stage2_tlb.flushedEntries            0                       # Number of entries that have been flushed from TLB
system.cpu.dtb.stage2_mmu.stage2_tlb.alignFaults            0                       # Number of TLB faults due to alignment restrictions
system.cpu.dtb.stage2_mmu.stage2_tlb.prefetchFaults            0                       # Number of TLB faults due to prefetch
system.cpu.dtb.stage2_mmu.stage2_tlb.domainFaults            0                       # Number of TLB faults due to domain restrictions
system.cpu.dtb.stage2_mmu.stage2_tlb.permsFaults            0                       # Number of TLB faults due to permissions restrictions
system.cpu.dtb.stage2_mmu.stage2_tlb.readAccesses            0                       # DTB read accesses
system.cpu.dtb.stage2_mmu.stage2_tlb.writeAccesses            0                       # DTB write accesses
system.cpu.dtb.stage2_mmu.stage2_tlb.instAccesses            0                       # ITB inst accesses
system.cpu.dtb.stage2_mmu.stage2_tlb.hits            0                       # Total TLB (inst and data) hits
system.cpu.dtb.stage2_mmu.stage2_tlb.misses            0                       # Total TLB (inst and data) misses
system.cpu.dtb.stage2_mmu.stage2_tlb.accesses            0                       # Total TLB (inst and data) accesses
system.cpu.dtb.stage2_mmu.stage2_tlb.walker.walks            0                       # Table walker walks requested
system.cpu.dtb.stage2_mmu.stage2_tlb.walker.requestOrigin_Requested::Data            0                       # Table walker requests started/completed, data/inst
system.cpu.dtb.stage2_mmu.stage2_tlb.walker.requestOrigin_Requested::Inst            0                       # Table walker requests started/completed, data/inst
system.cpu.dtb.stage2_mmu.stage2_tlb.walker.requestOrigin_Requested::total            0                       # Table walker requests started/completed, data/inst
system.cpu.dtb.stage2_mmu.stage2_tlb.walker.requestOrigin_Completed::Data            0                       # Table walker requests started/completed, data/inst
system.cpu.dtb.stage2_mmu.stage2_tlb.walker.requestOrigin_Completed::Inst            0                       # Table walker requests started/completed, data/inst
system.cpu.dtb.stage2_mmu.stage2_tlb.walker.requestOrigin_Completed::total            0                       # Table walker requests started/completed, data/inst
system.cpu.dtb.stage2_mmu.stage2_tlb.walker.requestOrigin::total            0                       # Table walker requests started/completed, data/inst
system.cpu.dtb.stage2_mmu.stage2_tlb.walker.power_state.pwrStateResidencyTicks::UNDEFINED 6395810346500                       # Cumulative time (in ticks) in various power states
system.cpu.dtb.walker.walks                         0                       # Table walker walks requested
system.cpu.dtb.walker.requestOrigin_Requested::Data            0                       # Table walker requests started/completed, data/inst
system.cpu.dtb.walker.requestOrigin_Requested::Inst            0                       # Table walker requests started/completed, data/inst
system.cpu.dtb.walker.requestOrigin_Requested::total            0                       # Table walker requests started/completed, data/inst
system.cpu.dtb.walker.requestOrigin_Completed::Data            0                       # Table walker requests started/completed, data/inst
system.cpu.dtb.walker.requestOrigin_Completed::Inst            0                       # Table walker requests started/completed, data/inst
system.cpu.dtb.walker.requestOrigin_Completed::total            0                       # Table walker requests started/completed, data/inst
system.cpu.dtb.walker.requestOrigin::total            0                       # Table walker requests started/completed, data/inst
system.cpu.dtb.walker.power_state.pwrStateResidencyTicks::UNDEFINED 6395810346500                       # Cumulative time (in ticks) in various power states
system.cpu.icache.demand_hits::.cpu.inst           14                       # number of demand (read+write) hits
system.cpu.icache.demand_hits::.switch_cpus.inst    895057220                       # number of demand (read+write) hits
system.cpu.icache.demand_hits::total        895057234                       # number of demand (read+write) hits
system.cpu.icache.overall_hits::.cpu.inst           14                       # number of overall hits
system.cpu.icache.overall_hits::.switch_cpus.inst    895057220                       # number of overall hits
system.cpu.icache.overall_hits::total       895057234                       # number of overall hits
system.cpu.icache.demand_misses::.cpu.inst            6                       # number of demand (read+write) misses
system.cpu.icache.demand_misses::.switch_cpus.inst       383136                       # number of demand (read+write) misses
system.cpu.icache.demand_misses::total         383142                       # number of demand (read+write) misses
system.cpu.icache.overall_misses::.cpu.inst            6                       # number of overall misses
system.cpu.icache.overall_misses::.switch_cpus.inst       383136                       # number of overall misses
system.cpu.icache.overall_misses::total        383142                       # number of overall misses
system.cpu.icache.demand_miss_latency::.switch_cpus.inst  29409406000                       # number of demand (read+write) miss cycles
system.cpu.icache.demand_miss_latency::total  29409406000                       # number of demand (read+write) miss cycles
system.cpu.icache.overall_miss_latency::.switch_cpus.inst  29409406000                       # number of overall miss cycles
system.cpu.icache.overall_miss_latency::total  29409406000                       # number of overall miss cycles
system.cpu.icache.demand_accesses::.cpu.inst           20                       # number of demand (read+write) accesses
system.cpu.icache.demand_accesses::.switch_cpus.inst    895440356                       # number of demand (read+write) accesses
system.cpu.icache.demand_accesses::total    895440376                       # number of demand (read+write) accesses
system.cpu.icache.overall_accesses::.cpu.inst           20                       # number of overall (read+write) accesses
system.cpu.icache.overall_accesses::.switch_cpus.inst    895440356                       # number of overall (read+write) accesses
system.cpu.icache.overall_accesses::total    895440376                       # number of overall (read+write) accesses
system.cpu.icache.demand_miss_rate::.cpu.inst     0.300000                       # miss rate for demand accesses
system.cpu.icache.demand_miss_rate::.switch_cpus.inst     0.000428                       # miss rate for demand accesses
system.cpu.icache.demand_miss_rate::total     0.000428                       # miss rate for demand accesses
system.cpu.icache.overall_miss_rate::.cpu.inst     0.300000                       # miss rate for overall accesses
system.cpu.icache.overall_miss_rate::.switch_cpus.inst     0.000428                       # miss rate for overall accesses
system.cpu.icache.overall_miss_rate::total     0.000428                       # miss rate for overall accesses
system.cpu.icache.demand_avg_miss_latency::.switch_cpus.inst 76759.704126                       # average overall miss latency
system.cpu.icache.demand_avg_miss_latency::total 76758.502070                       # average overall miss latency
system.cpu.icache.overall_avg_miss_latency::.switch_cpus.inst 76759.704126                       # average overall miss latency
system.cpu.icache.overall_avg_miss_latency::total 76758.502070                       # average overall miss latency
system.cpu.icache.blocked_cycles::no_mshrs         1044                       # number of cycles access was blocked
system.cpu.icache.blocked_cycles::no_targets            0                       # number of cycles access was blocked
system.cpu.icache.blocked::no_mshrs                12                       # number of cycles access was blocked
system.cpu.icache.blocked::no_targets               0                       # number of cycles access was blocked
system.cpu.icache.avg_blocked_cycles::no_mshrs           87                       # average number of cycles each access was blocked
system.cpu.icache.avg_blocked_cycles::no_targets          nan                       # average number of cycles each access was blocked
system.cpu.icache.ghost_timestamp_misses            0                       # number of times timestamp policy causes a block to be inaccessible
system.cpu.icache.ghost_commits                    58                       # number of cache lines moved from ghost to main
system.cpu.icache.same_leapfrogs                    0                       # number of times leapfrogging occurs with a shared MSHR request
system.cpu.icache.writebacks::.writebacks           58                       # number of writebacks
system.cpu.icache.writebacks::total                58                       # number of writebacks
system.cpu.icache.demand_mshr_hits::.switch_cpus.inst        47440                       # number of demand (read+write) MSHR hits
system.cpu.icache.demand_mshr_hits::total        47440                       # number of demand (read+write) MSHR hits
system.cpu.icache.overall_mshr_hits::.switch_cpus.inst        47440                       # number of overall MSHR hits
system.cpu.icache.overall_mshr_hits::total        47440                       # number of overall MSHR hits
system.cpu.icache.demand_mshr_misses::.switch_cpus.inst       335696                       # number of demand (read+write) MSHR misses
system.cpu.icache.demand_mshr_misses::total       335696                       # number of demand (read+write) MSHR misses
system.cpu.icache.overall_mshr_misses::.switch_cpus.inst       335696                       # number of overall MSHR misses
system.cpu.icache.overall_mshr_misses::total       335696                       # number of overall MSHR misses
system.cpu.icache.demand_mshr_miss_latency::.switch_cpus.inst  26299774000                       # number of demand (read+write) MSHR miss cycles
system.cpu.icache.demand_mshr_miss_latency::total  26299774000                       # number of demand (read+write) MSHR miss cycles
system.cpu.icache.overall_mshr_miss_latency::.switch_cpus.inst  26299774000                       # number of overall MSHR miss cycles
system.cpu.icache.overall_mshr_miss_latency::total  26299774000                       # number of overall MSHR miss cycles
system.cpu.icache.demand_mshr_miss_rate::.switch_cpus.inst     0.000375                       # mshr miss rate for demand accesses
system.cpu.icache.demand_mshr_miss_rate::total     0.000375                       # mshr miss rate for demand accesses
system.cpu.icache.overall_mshr_miss_rate::.switch_cpus.inst     0.000375                       # mshr miss rate for overall accesses
system.cpu.icache.overall_mshr_miss_rate::total     0.000375                       # mshr miss rate for overall accesses
system.cpu.icache.demand_avg_mshr_miss_latency::.switch_cpus.inst 78344.019589                       # average overall mshr miss latency
system.cpu.icache.demand_avg_mshr_miss_latency::total 78344.019589                       # average overall mshr miss latency
system.cpu.icache.overall_avg_mshr_miss_latency::.switch_cpus.inst 78344.019589                       # average overall mshr miss latency
system.cpu.icache.overall_avg_mshr_miss_latency::total 78344.019589                       # average overall mshr miss latency
system.cpu.icache.replacements                      0                       # number of replacements
system.cpu.icache.ReadReq_hits::.cpu.inst           14                       # number of ReadReq hits
system.cpu.icache.ReadReq_hits::.switch_cpus.inst    895057220                       # number of ReadReq hits
system.cpu.icache.ReadReq_hits::total       895057234                       # number of ReadReq hits
system.cpu.icache.ReadReq_misses::.cpu.inst            6                       # number of ReadReq misses
system.cpu.icache.ReadReq_misses::.switch_cpus.inst       383136                       # number of ReadReq misses
system.cpu.icache.ReadReq_misses::total        383142                       # number of ReadReq misses
system.cpu.icache.ReadReq_miss_latency::.switch_cpus.inst  29409406000                       # number of ReadReq miss cycles
system.cpu.icache.ReadReq_miss_latency::total  29409406000                       # number of ReadReq miss cycles
system.cpu.icache.ReadReq_accesses::.cpu.inst           20                       # number of ReadReq accesses(hits+misses)
system.cpu.icache.ReadReq_accesses::.switch_cpus.inst    895440356                       # number of ReadReq accesses(hits+misses)
system.cpu.icache.ReadReq_accesses::total    895440376                       # number of ReadReq accesses(hits+misses)
system.cpu.icache.ReadReq_miss_rate::.cpu.inst     0.300000                       # miss rate for ReadReq accesses
system.cpu.icache.ReadReq_miss_rate::.switch_cpus.inst     0.000428                       # miss rate for ReadReq accesses
system.cpu.icache.ReadReq_miss_rate::total     0.000428                       # miss rate for ReadReq accesses
system.cpu.icache.ReadReq_avg_miss_latency::.switch_cpus.inst 76759.704126                       # average ReadReq miss latency
system.cpu.icache.ReadReq_avg_miss_latency::total 76758.502070                       # average ReadReq miss latency
system.cpu.icache.ReadReq_mshr_hits::.switch_cpus.inst        47440                       # number of ReadReq MSHR hits
system.cpu.icache.ReadReq_mshr_hits::total        47440                       # number of ReadReq MSHR hits
system.cpu.icache.ReadReq_mshr_misses::.switch_cpus.inst       335696                       # number of ReadReq MSHR misses
system.cpu.icache.ReadReq_mshr_misses::total       335696                       # number of ReadReq MSHR misses
system.cpu.icache.ReadReq_mshr_miss_latency::.switch_cpus.inst  26299774000                       # number of ReadReq MSHR miss cycles
system.cpu.icache.ReadReq_mshr_miss_latency::total  26299774000                       # number of ReadReq MSHR miss cycles
system.cpu.icache.ReadReq_mshr_miss_rate::.switch_cpus.inst     0.000375                       # mshr miss rate for ReadReq accesses
system.cpu.icache.ReadReq_mshr_miss_rate::total     0.000375                       # mshr miss rate for ReadReq accesses
system.cpu.icache.ReadReq_avg_mshr_miss_latency::.switch_cpus.inst 78344.019589                       # average ReadReq mshr miss latency
system.cpu.icache.ReadReq_avg_mshr_miss_latency::total 78344.019589                       # average ReadReq mshr miss latency
system.cpu.icache.ghosttags.tagsinuse       -1.806455                       # Cycle average of tags in use
system.cpu.icache.ghosttags.total_refs              0                       # Total number of references to valid blocks.
system.cpu.icache.ghosttags.sampled_refs            0                       # Sample count of references to valid blocks.
system.cpu.icache.ghosttags.avg_refs              nan                       # Average number of references to valid blocks.
system.cpu.icache.ghosttags.warmup_cycle 5120492542500                       # Cycle when the warmup percentage was hit.
system.cpu.icache.ghosttags.occ_blocks::.switch_cpus.inst 149446.131482                       # Average occupied blocks per requestor
system.cpu.icache.ghosttags.occ_percent::.switch_cpus.inst  4670.191609                       # Average percentage of cache occupancy
system.cpu.icache.ghosttags.occ_percent::total  4670.191609                       # Average percentage of cache occupancy
system.cpu.icache.ghosttags.tag_accesses      1107512                       # Number of tag accesses
system.cpu.icache.ghosttags.data_accesses      1107512                       # Number of data accesses
system.cpu.icache.ghosttags.repl_invalid            0                       # Number of initial replacements
system.cpu.icache.ghosttags.repl_valid_tag            0                       # Number of local replacements
system.cpu.icache.ghosttags.repl_valid_data            0                       # Number of global replacements
system.cpu.icache.ghosttags.power_state.pwrStateResidencyTicks::UNDEFINED 6395810346500                       # Cumulative time (in ticks) in various power states
system.cpu.icache.power_state.pwrStateResidencyTicks::UNDEFINED 6395810346500                       # Cumulative time (in ticks) in various power states
system.cpu.icache.tags.tagsinuse         -149381.131704                       # Cycle average of tags in use
system.cpu.icache.tags.total_refs           895392994                       # Total number of references to valid blocks.
system.cpu.icache.tags.sampled_refs            335760                       # Sample count of references to valid blocks.
system.cpu.icache.tags.avg_refs           2666.764933                       # Average number of references to valid blocks.
system.cpu.icache.tags.warmup_cycle      5120492385500                       # Cycle when the warmup percentage was hit.
system.cpu.icache.tags.occ_blocks::.cpu.inst     6.000000                       # Average occupied blocks per requestor
system.cpu.icache.tags.occ_blocks::.switch_cpus.inst -149387.131704                       # Average occupied blocks per requestor
system.cpu.icache.tags.occ_percent::.cpu.inst     0.011719                       # Average percentage of cache occupancy
system.cpu.icache.tags.occ_percent::.switch_cpus.inst  -291.771742                       # Average percentage of cache occupancy
system.cpu.icache.tags.occ_percent::total  -291.760023                       # Average percentage of cache occupancy
system.cpu.icache.tags.occ_task_id_blocks::1024           65                       # Occupied blocks per task id
system.cpu.icache.tags.age_task_id_blocks_1024::4           65                       # Occupied blocks per task id
system.cpu.icache.tags.occ_task_id_percent::1024     0.126953                       # Percentage of cache occupancy per task id
system.cpu.icache.tags.tag_accesses        7163523076                       # Number of tag accesses
system.cpu.icache.tags.data_accesses       7163523076                       # Number of data accesses
system.cpu.icache.tags.repl_invalid                 0                       # Number of initial replacements
system.cpu.icache.tags.repl_valid_tag               0                       # Number of local replacements
system.cpu.icache.tags.repl_valid_data              0                       # Number of global replacements
system.cpu.icache.tags.power_state.pwrStateResidencyTicks::UNDEFINED 6395810346500                       # Cumulative time (in ticks) in various power states
system.cpu.itb.instHits                             0                       # ITB inst hits
system.cpu.itb.instMisses                           0                       # ITB inst misses
system.cpu.itb.readHits                             0                       # DTB read hits
system.cpu.itb.readMisses                           0                       # DTB read misses
system.cpu.itb.writeHits                            0                       # DTB write hits
system.cpu.itb.writeMisses                          0                       # DTB write misses
system.cpu.itb.inserts                              0                       # Number of times an entry is inserted into the TLB
system.cpu.itb.flushTlb                             2                       # Number of times complete TLB was flushed
system.cpu.itb.flushTlbMva                          0                       # Number of times TLB was flushed by MVA
system.cpu.itb.flushTlbMvaAsid                      0                       # Number of times TLB was flushed by MVA & ASID
system.cpu.itb.flushTlbAsid                         0                       # Number of times TLB was flushed by ASID
system.cpu.itb.flushedEntries                       0                       # Number of entries that have been flushed from TLB
system.cpu.itb.alignFaults                          0                       # Number of TLB faults due to alignment restrictions
system.cpu.itb.prefetchFaults                       0                       # Number of TLB faults due to prefetch
system.cpu.itb.domainFaults                         0                       # Number of TLB faults due to domain restrictions
system.cpu.itb.permsFaults                          0                       # Number of TLB faults due to permissions restrictions
system.cpu.itb.readAccesses                         0                       # DTB read accesses
system.cpu.itb.writeAccesses                        0                       # DTB write accesses
system.cpu.itb.instAccesses                         0                       # ITB inst accesses
system.cpu.itb.hits                                 0                       # Total TLB (inst and data) hits
system.cpu.itb.misses                               0                       # Total TLB (inst and data) misses
system.cpu.itb.accesses                             0                       # Total TLB (inst and data) accesses
system.cpu.itb.stage2_mmu.stage2_tlb.instHits            0                       # ITB inst hits
system.cpu.itb.stage2_mmu.stage2_tlb.instMisses            0                       # ITB inst misses
system.cpu.itb.stage2_mmu.stage2_tlb.readHits            0                       # DTB read hits
system.cpu.itb.stage2_mmu.stage2_tlb.readMisses            0                       # DTB read misses
system.cpu.itb.stage2_mmu.stage2_tlb.writeHits            0                       # DTB write hits
system.cpu.itb.stage2_mmu.stage2_tlb.writeMisses            0                       # DTB write misses
system.cpu.itb.stage2_mmu.stage2_tlb.inserts            0                       # Number of times an entry is inserted into the TLB
system.cpu.itb.stage2_mmu.stage2_tlb.flushTlb            0                       # Number of times complete TLB was flushed
system.cpu.itb.stage2_mmu.stage2_tlb.flushTlbMva            0                       # Number of times TLB was flushed by MVA
system.cpu.itb.stage2_mmu.stage2_tlb.flushTlbMvaAsid            0                       # Number of times TLB was flushed by MVA & ASID
system.cpu.itb.stage2_mmu.stage2_tlb.flushTlbAsid            0                       # Number of times TLB was flushed by ASID
system.cpu.itb.stage2_mmu.stage2_tlb.flushedEntries            0                       # Number of entries that have been flushed from TLB
system.cpu.itb.stage2_mmu.stage2_tlb.alignFaults            0                       # Number of TLB faults due to alignment restrictions
system.cpu.itb.stage2_mmu.stage2_tlb.prefetchFaults            0                       # Number of TLB faults due to prefetch
system.cpu.itb.stage2_mmu.stage2_tlb.domainFaults            0                       # Number of TLB faults due to domain restrictions
[...]
system.switch_cpus.fetch.cycles            1579267558                       # Number of cycles fetch has run and was not squashing or blocked
system.switch_cpus.fetch.squashCycles       101382156                       # Number of cycles fetch has spent squashing
system.switch_cpus.fetch.miscStallCycles          114                       # Number of cycles fetch has spent waiting on interrupts,or bad addresses, or out of MSHRs
system.switch_cpus.fetch.pendingTrapStallCycles           99                       # Number of stall cycles due to pending traps
system.switch_cpus.fetch.icacheWaitRetryStallCycles          114                       # Number of stall cycles due to full MSHR
system.switch_cpus.fetch.cacheLines         895440358                       # Number of cache lines fetched
system.switch_cpus.fetch.icacheSquashes      23488605                       # Number of outstanding Icache misses that were squashed
system.switch_cpus.fetch.nisnDist::samples   2550190463                       # Number of instructions fetched each cycle (Total)
system.switch_cpus.fetch.nisnDist::mean      1.628336                       # Number of instructions fetched each cycle (Total)
system.switch_cpus.fetch.nisnDist::stdev     2.495729                       # Number of instructions fetched each cycle (Total)
system.switch_cpus.fetch.nisnDist::underflows            0      0.00%      0.00% # Number of instructions fetched each cycle (Total)
system.switch_cpus.fetch.nisnDist::0       1496414013     58.68%     58.68% # Number of instructions fetched each cycle (Total)
system.switch_cpus.fetch.nisnDist::1        157168046      6.16%     64.84% # Number of instructions fetched each cycle (Total)
system.switch_cpus.fetch.nisnDist::2        226994660      8.90%     73.74% # Number of instructions fetched each cycle (Total)
system.switch_cpus.fetch.nisnDist::3        194164424      7.61%     81.36% # Number of instructions fetched each cycle (Total)
system.switch_cpus.fetch.nisnDist::4        149786320      5.87%     87.23% # Number of instructions fetched each cycle (Total)
system.switch_cpus.fetch.nisnDist::5         13835698      0.54%     87.77% # Number of instructions fetched each cycle (Total)
system.switch_cpus.fetch.nisnDist::6         97200987      3.81%     91.58% # Number of instructions fetched each cycle (Total)
system.switch_cpus.fetch.nisnDist::7          9624552      0.38%     91.96% # Number of instructions fetched each cycle (Total)
system.switch_cpus.fetch.nisnDist::8        205001763      8.04%    100.00% # Number of instructions fetched each cycle (Total)
system.switch_cpus.fetch.nisnDist::overflows            0      0.00%    100.00% # Number of instructions fetched each cycle (Total)
system.switch_cpus.fetch.nisnDist::min_value            0                       # Number of instructions fetched each cycle (Total)
system.switch_cpus.fetch.nisnDist::max_value            8                       # Number of instructions fetched each cycle (Total)
system.switch_cpus.fetch.nisnDist::total   2550190463                       # Number of instructions fetched each cycle (Total)
system.switch_cpus.fetch.branchRate          0.471526                       # Number of branch fetches per cycle
system.switch_cpus.fetch.rate                1.610468                       # Number of inst fetches per cycle
system.switch_cpus.itb.instHits                     0                       # ITB inst hits
system.switch_cpus.itb.instMisses                   0                       # ITB inst misses
system.switch_cpus.itb.readHits                     0                       # DTB read hits
system.switch_cpus.itb.readMisses                   0                       # DTB read misses
system.switch_cpus.itb.writeHits                    0                       # DTB write hits
system.switch_cpus.itb.writeMisses                  0                       # DTB write misses
system.switch_cpus.itb.inserts                      0                       # Number of times an entry is inserted into the TLB
system.switch_cpus.itb.flushTlb                     0                       # Number of times complete TLB was flushed
system.switch_cpus.itb.flushTlbMva                  0                       # Number of times TLB was flushed by MVA
system.switch_cpus.itb.flushTlbMvaAsid              0                       # Number of times TLB was flushed by MVA & ASID
system.switch_cpus.itb.flushTlbAsid                 0                       # Number of times TLB was flushed by ASID
system.switch_cpus.itb.flushedEntries               0                       # Number of entries that have been flushed from TLB
system.switch_cpus.itb.alignFaults                  0                       # Number of TLB faults due to alignment restrictions
system.switch_cpus.itb.prefetchFaults               0                       # Number of TLB faults due to prefetch
system.switch_cpus.itb.domainFaults                 0                       # Number of TLB faults due to domain restrictions
system.switch_cpus.itb.permsFaults                  0                       # Number of TLB faults due to permissions restrictions
system.switch_cpus.itb.readAccesses                 0                       # DTB read accesses
system.switch_cpus.itb.writeAccesses                0                       # DTB write accesses
system.switch_cpus.itb.instAccesses                 0                       # ITB inst accesses
system.switch_cpus.itb.hits                         0                       # Total TLB (inst and data) hits
system.switch_cpus.itb.misses                       0                       # Total TLB (inst and data) misses
system.switch_cpus.itb.accesses                     0                       # Total TLB (inst and data) accesses
system.switch_cpus.itb.stage2_mmu.stage2_tlb.instHits            0                       # ITB inst hits
system.switch_cpus.itb.stage2_mmu.stage2_tlb.instMisses            0                       # ITB inst misses
system.switch_cpus.itb.stage2_mmu.stage2_tlb.readHits            0                       # DTB read hits
system.switch_cpus.itb.stage2_mmu.stage2_tlb.readMisses            0                       # DTB read misses
system.switch_cpus.itb.stage2_mmu.stage2_tlb.writeHits            0                       # DTB write hits
system.switch_cpus.itb.stage2_mmu.stage2_tlb.writeMisses            0                       # DTB write misses
system.switch_cpus.itb.stage2_mmu.stage2_tlb.inserts            0                       # Number of times an entry is inserted into the TLB
system.switch_cpus.itb.stage2_mmu.stage2_tlb.flushTlb            0                       # Number of times complete TLB was flushed
system.switch_cpus.itb.stage2_mmu.stage2_tlb.flushTlbMva            0                       # Number of times TLB was flushed by MVA
system.switch_cpus.itb.stage2_mmu.stage2_tlb.flushTlbMvaAsid            0                       # Number of times TLB was flushed by MVA & ASID
system.switch_cpus.itb.stage2_mmu.stage2_tlb.flushTlbAsid            0                       # Number of times TLB was flushed by ASID
system.switch_cpus.itb.stage2_mmu.stage2_tlb.flushedEntries            0                       # Number of entries that have been flushed from TLB
system.switch_cpus.itb.stage2_mmu.stage2_tlb.alignFaults            0                       # Number of TLB faults due to alignment restrictions
system.switch_cpus.itb.stage2_mmu.stage2_tlb.prefetchFaults            0                       # Number of TLB faults due to prefetch
system.switch_cpus.itb.stage2_mmu.stage2_tlb.domainFaults            0                       # Number of TLB faults due to domain restrictions
system.switch_cpus.itb.stage2_mmu.stage2_tlb.permsFaults            0                       # Number of TLB faults due to permissions restrictions
system.switch_cpus.itb.stage2_mmu.stage2_tlb.readAccesses            0                       # DTB read accesses
system.switch_cpus.itb.stage2_mmu.stage2_tlb.writeAccesses            0                       # DTB write accesses
system.switch_cpus.itb.stage2_mmu.stage2_tlb.instAccesses            0                       # ITB inst accesses
system.switch_cpus.itb.stage2_mmu.stage2_tlb.hits            0                       # Total TLB (inst and data) hits
system.switch_cpus.itb.stage2_mmu.stage2_tlb.misses            0                       # Total TLB (inst and data) misses
system.switch_cpus.itb.stage2_mmu.stage2_tlb.accesses            0                       # Total TLB (inst and data) accesses
system.switch_cpus.itb.stage2_mmu.stage2_tlb.walker.walks            0                       # Table walker walks requested
system.switch_cpus.itb.stage2_mmu.stage2_tlb.walker.requestOrigin_Requested::Data            0                       # Table walker requests started/completed, data/inst
system.switch_cpus.itb.stage2_mmu.stage2_tlb.walker.requestOrigin_Requested::Inst            0                       # Table walker requests started/completed, data/inst
system.switch_cpus.itb.stage2_mmu.stage2_tlb.walker.requestOrigin_Requested::total            0                       # Table walker requests started/completed, data/inst
system.switch_cpus.itb.stage2_mmu.stage2_tlb.walker.requestOrigin_Completed::Data            0                       # Table walker requests started/completed, data/inst
system.switch_cpus.itb.stage2_mmu.stage2_tlb.walker.requestOrigin_Completed::Inst            0                       # Table walker requests started/completed, data/inst
system.switch_cpus.itb.stage2_mmu.stage2_tlb.walker.requestOrigin_Completed::total            0                       # Table walker requests started/completed, data/inst
system.switch_cpus.itb.stage2_mmu.stage2_tlb.walker.requestOrigin::total            0                       # Table walker requests started/completed, data/inst
system.switch_cpus.itb.stage2_mmu.stage2_tlb.walker.power_state.pwrStateResidencyTicks::UNDEFINED 6395810346500                       # Cumulative time (in ticks) in various power states
system.switch_cpus.itb.walker.walks                 0                       # Table walker walks requested
system.switch_cpus.itb.walker.requestOrigin_Requested::Data            0                       # Table walker requests started/completed, data/inst
system.switch_cpus.itb.walker.requestOrigin_Requested::Inst            0                       # Table walker requests started/completed, data/inst
system.switch_cpus.itb.walker.requestOrigin_Requested::total            0                       # Table walker requests started/completed, data/inst
system.switch_cpus.itb.walker.requestOrigin_Completed::Data            0                       # Table walker requests started/completed, data/inst
system.switch_cpus.itb.walker.requestOrigin_Completed::Inst            0                       # Table walker requests started/completed, data/inst
system.switch_cpus.itb.walker.requestOrigin_Completed::total            0                       # Table walker requests started/completed, data/inst
system.switch_cpus.itb.walker.requestOrigin::total            0                       # Table walker requests started/completed, data/inst
system.switch_cpus.itb.walker.power_state.pwrStateResidencyTicks::UNDEFINED 6395810346500                       # Cumulative time (in ticks) in various power states
system.switch_cpus.lsq0.forwLoads            46290356                       # Number of loads that had data forwarded from stores
system.switch_cpus.lsq0.squashedLoads       424073094                       # Number of loads squashed
system.switch_cpus.lsq0.ignoredResponses       132716                       # Number of memory responses ignored because the instruction is squashed
system.switch_cpus.lsq0.memOrderViolation        25936                       # Number of memory ordering violations
system.switch_cpus.lsq0.squashedStores       54299545                       # Number of stores squashed
system.switch_cpus.lsq0.rescheduledLoads        26906                       # Number of loads that were rescheduled
system.switch_cpus.lsq0.blockedByCache       34366751                       # Number of times an access to memory failed due to the cache being blocked
system.switch_cpus.power_state.pwrStateResidencyTicks::OFF 1275317961500                       # Cumulative time (in ticks) in various power states
system.switch_cpus.rename.squashCycles       50691045                       # Number of cycles rename is squashing
system.switch_cpus.rename.idleCycles        811067269                       # Number of cycles rename is idle
system.switch_cpus.rename.blockCycles       419653966                       # Number of cycles rename is blocking
system.switch_cpus.rename.serializeStallCycles            0                       # count of cycles rename stalledfor serializing inst
system.switch_cpus.rename.runCycles         896601793                       # Number of cycles rename is running
system.switch_cpus.rename.unblockCycles     372176389                       # Number of cycles rename is unblocking
system.switch_cpus.rename.renamedInsts     3815970579                       # Number of instructions processed by rename
system.switch_cpus.rename.ROBFullEvents        506805                       # Number of times rename has blocked due to ROB full
system.switch_cpus.rename.IQFullEvents       40747863                       # Number of times rename has blocked due to IQ full
system.switch_cpus.rename.LQFullEvents      358481575                       # Number of times rename has blocked due to LQ full
system.switch_cpus.rename.SQFullEvents         239516                       # Number of times rename has blocked due to SQ full
system.switch_cpus.rename.renamedOperands   4323436745                       # Number of destination operands rename has renamed
system.switch_cpus.rename.lookups          6290265304                       # Number of register rename lookups that rename has made
system.switch_cpus.rename.intLookups       4122745777                       # Number of integer rename lookups
system.switch_cpus.rename.vecLookups              652                       # Number of vector rename lookups
system.switch_cpus.rename.committedMaps    2331580070                       # Number of HB maps that are committed
system.switch_cpus.rename.undoneMaps       1991856662                       # Number of HB maps that are undone due to squashing
system.switch_cpus.rename.serializing               0                       # count of serializing insts renamed
system.switch_cpus.rename.tempSerializing            0                       # count of temporary serializing insts renamed
system.switch_cpus.rename.skidInsts         147017813                       # count of insts added to the skid buffer
system.switch_cpus.rob.reads               5805348625                       # The number of ROB reads
system.switch_cpus.rob.writes              7455070554                       # The number of ROB writes
system.switch_cpus.thread0.numInsts        2000000003                       # Number of Instructions committed
system.switch_cpus.thread0.numOps          2030196161                       # Number of Ops committed
system.switch_cpus.thread0.numMemRefs               0                       # Number of Memory References
system.tol2bus.trans_dist::ReadResp          92295768                       # Transaction distribution
system.tol2bus.trans_dist::WritebackDirty     12111409                       # Transaction distribution
system.tol2bus.trans_dist::WritebackClean     58320335                       # Transaction distribution
system.tol2bus.trans_dist::CleanEvict        46392626                       # Transaction distribution
system.tol2bus.trans_dist::HardPFReq         11764475                       # Transaction distribution
system.tol2bus.trans_dist::UpgradeReq         3084563                       # Transaction distribution
system.tol2bus.trans_dist::UpgradeResp        3084563                       # Transaction distribution
system.tol2bus.trans_dist::ReadExReq          8832581                       # Transaction distribution
system.tol2bus.trans_dist::ReadExResp         8832581                       # Transaction distribution
system.tol2bus.trans_dist::ReadCleanReq      92295764                       # Transaction distribution
system.tol2bus.trans_dist::ReadSharedReq            4                       # Transaction distribution
system.tol2bus.trans_dist::InvalidateReq         1907                       # Transaction distribution
system.tol2bus.trans_dist::InvalidateResp         1907                       # Transaction distribution
system.tol2bus.pkt_count_system.cpu.icache.mem_side_port::system.l2.cpu_side_port      1004428                       # Packet count per connected requestor and responder (bytes)
system.tol2bus.pkt_count_system.cpu.dcache.mem_side_port::system.l2.cpu_side_port    308022218                       # Packet count per connected requestor and responder (bytes)
system.tol2bus.pkt_count::total             309026646                       # Packet count per connected requestor and responder (bytes)
system.tol2bus.pkt_size_system.cpu.icache.mem_side_port::system.l2.cpu_side_port     21318656                       # Cumulative packet size per connected requestor and responder (bytes)
system.tol2bus.pkt_size_system.cpu.dcache.mem_side_port::system.l2.cpu_side_port  10945960256                       # Cumulative packet size per connected requestor and responder (bytes)
system.tol2bus.pkt_size::total            10967278912                       # Cumulative packet size per connected requestor and responder (bytes)
system.tol2bus.snoops                        27991837                       # Total snoops (count)
system.tol2bus.snoopTraffic                  12567040                       # Total snoop traffic (bytes)
system.tol2bus.snoop_fanout::samples        132204060                       # Request fanout histogram
system.tol2bus.snoop_fanout::mean            0.037561                       # Request fanout histogram
system.tol2bus.snoop_fanout::stdev           0.190134                       # Request fanout histogram
system.tol2bus.snoop_fanout::underflows             0      0.00%      0.00% # Request fanout histogram
system.tol2bus.snoop_fanout::0              127238299     96.24%     96.24% # Request fanout histogram
system.tol2bus.snoop_fanout::1                4965740      3.76%    100.00% # Request fanout histogram
system.tol2bus.snoop_fanout::2                     21      0.00%    100.00% # Request fanout histogram
system.tol2bus.snoop_fanout::overflows              0      0.00%    100.00% # Request fanout histogram
system.tol2bus.snoop_fanout::min_value              0                       # Request fanout histogram
system.tol2bus.snoop_fanout::max_value              2                       # Request fanout histogram
system.tol2bus.snoop_fanout::total          132204060                       # Request fanout histogram
system.tol2bus.power_state.pwrStateResidencyTicks::UNDEFINED 6395810346500                       # Cumulative time (in ticks) in various power states
system.tol2bus.reqLayer0.occupancy       196312487549                       # Layer occupancy (ticks)
system.tol2bus.reqLayer0.utilization             15.4                       # Layer utilization (%)
system.tol2bus.respLayer0.occupancy         507765540                       # Layer occupancy (ticks)
system.tol2bus.respLayer0.utilization             0.0                       # Layer utilization (%)
system.tol2bus.respLayer1.occupancy      152732207983                       # Layer occupancy (ticks)
system.tol2bus.respLayer1.utilization            12.0                       # Layer utilization (%)
system.voltage_domain.voltage                       1                       # Voltage in Volts

---------- End Simulation Statistics   ----------
